# This is PFLOTRAN input deck
# Description: Simulate heterogeneous root oxygen release and methane transport for a coastal wetland soil profile, with key redox reactions incorporated
# Spin-up time for 30 days

# 1. Simulation Set up

SIMULATION
  SIMULATION_TYPE SUBSURFACE
  PROCESS_MODELS
    SUBSURFACE_FLOW flow
      MODE GENERAL
      OPTIONS
        #ARITHMETIC_GAS_DIFFUSIVE_DENSITY
      /
    /
    SUBSURFACE_TRANSPORT transport
      MODE GIRT
      #NUMERICAL_JACOBIAN
    /
  /
END


SUBSURFACE         # Opens the Subsurface card, from here onwards till the end, is all under this SUBSURFACE card

#=========================== solver options ===================================
NUMERICAL_METHODS TRANSPORT
  LINEAR_SOLVER
    SOLVER DIRECT
    !SOLVER ITERATIVE     ! default: ITERATIVE or KRYLOV: KSP_TYPE of BCGS and PC_TYPE of BJACOBI, if not modified below
    PC_TYPE JACOBI       ! default (iterative): BJACOBI. 
    KSP_TYPE fgmres      ! default: BCGS. NOT much difference 
  /

  NEWTON_SOLVER TRANSPORT
    NUMERICAL_JACOBIAN
    ATOL 1.d-20
    RTOL 1.d-15
    STOL 1.d-10
    ITOL 1.d-10
  /
END


#=========================== useful transport parameters =======================

REFERENCE_LIQUID_DENSITY 1.d3



# 2. Chemical Species Set up

#=========================== chemistry ========================================
CHEMISTRY
PRIMARY_SPECIES
  #### NOTE: Beginning of auto-inserted primary species ####
  DOM1
  H+
  O2(aq)
  HCO3-
  Tracer          #for recharge of DOM and SO4--
  Tracer1         # Tracer1 is for the product of the fake reaction of plant-mediated CH4 transport, CH4 -> Tracer1
  Tracer2         # Tracer2 is for constraining homogeneous plant-mediated CH4 removal at the rooting zone, Tracer2 is made to have high concentration at the root layer
  Tracer3         # Tracer3 is for constraining the heterogeneous plant-mediated CH4 removal at the root cells, Tracer3 is made to have high concentration within the root cells
  Tracer4         # the product of consuming Tracer2 and Tracer3 for the plant-mediated CH4 transport, or a "trash bin"
  Tracer5         # keep track of the Methane oxidation, one of the products of the methane aerobic oxidation
  Tracer6         # keep track of ebullition, product of the fake reaction simulating ebullition
  CH4(aq)
  SO4--
  H2S(aq)
  #### NOTE: End of auto-inserted primary species ####
/



DECOUPLED_EQUILIBRIUM_REACTIONS
  #### NOTE: Beginning of auto-inserted primary species ####
  DOM1
  H+
  O2(aq)
  HCO3-
  Tracer
  CH4(aq)
  H2S(aq)
  #### NOTE: End of auto-inserted primary species ####
/
SECONDARY_SPECIES
  #### NOTE: Beginning of auto-inserted secondary species ####
  CO2(aq)
  OH-
  #### NOTE: End of auto-inserted secondary species ####
/


PASSIVE_GAS_SPECIES
  #### NOTE: Beginning of auto-inserted gas species ####
  CO2(g)
  O2(g)
  #### NOTE: End of auto-inserted gas species ####
/


# 3. Microbial Reactions
#### NOTE: Beginning of auto-inserted reactions ####
# 3.1   #DOM Aerobic RESPIRATION


 MICROBIAL_REACTION
    REACTION 1.0 DOM1 + 1.0 O2(aq) -> 1.0 HCO3- + 1.0 H+    # 1 molecule of DOM1 here in this model contains 1 carbon atom
    RATE_CONSTANT 1.d-7   #unit: mol L-1 s-1           

    MONOD
      SPECIES_NAME O2(aq)
      HALF_SATURATION_CONSTANT 8.d-6      
    /

    
    MONOD
      SPECIES_NAME DOM1
      HALF_SATURATION_CONSTANT 4.d-3           #4e-3 for standard run  
    /    
  /



# 3.2 DOM1 Methanogenesis
MICROBIAL_REACTION    
  REACTION 2.0 DOM1 + 2.0 H2O -> 1.0 CH4(aq) + 1.0 HCO3- + 1.0 H+
  
  RATE_CONSTANT 4.d-10   # unit: mol L-1 s-1, derived from Weston 2014    #5.d-10 for standard runs

  MONOD
    SPECIES_NAME  DOM1
    HALF_SATURATION_CONSTANT 4.d-3
  /


  INHIBITION
    SPECIES_NAME O2(aq)
    TYPE MONOD
    INHIBITION_CONSTANT 2.5d-4            # Yuan et al. 2009, exposure to O2 for 24h decreased methane production rate by ~50%
  /
/


# 3.3 Methane oxidation - O2
  MICROBIAL_REACTION 
    REACTION 1.0 CH4(aq) + 2.0 O2(aq) -> 1.0 HCO3- + 1.0 H+ + 1.0 H2O + 1.0 Tracer5
    
    RATE_CONSTANT 5.d-10          
    
    
    MONOD
      SPECIES_NAME O2(aq)
      HALF_SATURATION_CONSTANT 8.d-6 
    /

    MONOD
      SPECIES_NAME CH4(aq)
      HALF_SATURATION_CONSTANT 5.d-4
    /
/

  


# 3.4 Sulfate reduction DOM1
  MICROBIAL_REACTION 
    REACTION 2.d0 DOM1 + 1.d0 SO4-- -> 2.d0 HCO3- + 2.0 H+ + 1.0d0 H2S(aq)
   
    RATE_CONSTANT 6.24d-9    #5.d-9 for standard runs
    
    MONOD
      SPECIES_NAME DOM1
      HALF_SATURATION_CONSTANT 4.d-3    
    /


    MONOD
      SPECIES_NAME SO4--
      HALF_SATURATION_CONSTANT 1.d-4   
    / 
  /






# 3.5 Sulfide oxidation
  MICROBIAL_REACTION 
    REACTION 1.d0 H2S(aq) + 2.d0 O2(aq) -> 1.d0 SO4-- + 2.d0 H+ 
    
    RATE_CONSTANT 5.d-7 #mol L-1 s-1    

    MONOD
      SPECIES_NAME O2(aq)
      HALF_SATURATION_CONSTANT 8.d-7
    /

    MONOD
      SPECIES_NAME H2S(aq)
      HALF_SATURATION_CONSTANT 1.d-3 
    / 
/



skip
# CH4 oxidation by Sulfate, final decision not to include this in my model
  MICROBIAL_REACTION
    REACTION CH4(aq) + SO4-- -> HCO3- + H2S(aq) + H2O

    RATE_CONSTANT 2.d-10

    MONOD
      SPECIES_NAME CH4(aq)
      HALF_SATURATION_CONSTANT 5.d-4
    /

    MONOD
      SPECIES_NAME SO4--
      HALF_SATURATION_CONSTANT 1.d-4
    /
  END
noskip



# 3.6 DOM recharge throughout the whole soil column, this is actually the hydrolysis of SOM to DOM
# to avoid depletion of DOM

MICROBIAL_REACTION 
    REACTION Tracer -> DOM1 
    
    RATE_CONSTANT 1.d-8     # unit: mol L-1 s-1
    
    MONOD
      SPECIES_NAME  Tracer
      HALF_SATURATION_CONSTANT   1.d-4
    /
/










# 3.9 Methane Fluxes 
########################### SIMULATION OF FLUXES of CH4 #############################################
## (1) EBULLITION,  extra CH4 is removed once its concentration exceeds the threshold
# use the threshold inhibition so that the reaction rate is near 0 when the concentration of the inhibition species is below threshold

# 3.9.1 Ebullition of CH4
MICROBIAL_REACTION
  REACTION     CH4(aq) -> Tracer6

  RATE_CONSTANT  3.d-10          #this need to be adjusted depending on the methanogenesis rate, otherwise methane can still accumulate
  
  INHIBITION
    SPECIES_NAME CH4(aq)
    TYPE THRESHOLD  7024445                   #the scaling factor, which = 1e4/threshold
    INHIBITION_CONSTANT 0.0014236             #threshold concentration, calculated based on Jiaze's code
  /
END




# 3.9.2 Homogeneous Plant-mediated transport of CH4 ######
# 3.9.2.1 Homogeneous Plant mediated transport of CH4
# To simulate the removal of CH4 from the root layer, CH4 is consumed (to simulate the CH4 transport process) in each cell of the root layer
# Use leaf-level measurements of CH4 flux from Villa et al 2020 to parameterize the model: 2.7e-3 mol m-2(leaf) d-1, Leaf Area Index = 2.78
MICROBIAL_REACTION
  REACTION    CH4(aq) -> Tracer1

  RATE_CONSTANT   1.6d-8              # 1.6d-8 for homogeneous mode of plant-mediated CH4 transport
  
  MONOD
    SPECIES_NAME  CH4(aq)              #The reaction rate depends on the CH4 concentration, which simulates the flux dependent on concentration gradient
    HALF_SATURATION_CONSTANT  1.d-2    #high half-saturation constant, so the change of flux in response to change in CH4 concentration is quasi-linear
  / 


  INHIBITION
    SPECIES_NAME  Tracer2                   
    TYPE THRESHOLD       1.d11      # scaling factor, 1e4 / threshold concentration
    INHIBITION_CONSTANT  1.d-7      #threshold concentration, only where Tracer2 is above 1e-7 mol/L, which would be the roots layer, this reaction happens
  /
END


# 3.9.2.2 Homogeneous removal of TRACER2 (for homogeneous plant-mediated CH4 tranport)
# This reaction is to maintain the high concentration of Tracer2 in the root cells, and zero concentration in non-root cells
# I inject Tracer2 to the root cells/root layer, Tracer2 would diffuse into neighboring cells, so I have to remove Tracer2 from the non-root cells as well

MICROBIAL_REACTION
  REACTION      Tracer2 -> Tracer4
  
  RATE_CONSTANT 5.d-9     
  # it needs to be tried and tested, to make sure that Tracer2 is not accumulating fast at the injection point and then diffused out to other regions
  # the Monod term makes the Tracer2 in other regions all gone, but remains a small portion in the root layer, so it always maintain a high Tracer2 in the root layer  
  
  
  MONOD
    SPECIES_NAME Tracer2
    HALF_SATURATION_CONSTANT 2.d-8
  /
END

##### End of homogeneous plant-mediated CH4 transport #############





############# 3.9.3 Heterogeneous Plant mediated transport of CH4
# 3.9.3.1 Removal of CH4
# To simualte the removal of CH4
# Use leaf-level measurement of CH4 flux from Villa et al 2020 to parameterize the model: 0.13e-6 mol m-2(leaf) s-1, Leaf Area Index = 2.78

###### Begining of heterogeneous plant-mediated CH4 transport ###############

MICROBIAL_REACTION
  REACTION    CH4(aq) -> Tracer1

 
  RATE_CONSTANT    5.3d-8

  MONOD
    SPECIES_NAME  CH4(aq)              #The reaction rate, i.e., the flux, depends on the CH4 concentration
    HALF_SATURATION_CONSTANT  1.d-2
  / 


  INHIBITION
    SPECIES_NAME  Tracer3                   
    TYPE THRESHOLD       1.d12
    INHIBITION_CONSTANT  1.d-8   
    #threshold concentration, only where Tracer3 is above 1.e-8 mol/L, which would be the roots layer, this reaction happens
    #threshold concentration changes with number of root cells, different from the standard run
    # You can find out the threshold concentration by looking at what the Tracer3 concentration is for the root cells
    
  /
END


#### 3.9.3.2 Removal of Tracer3 (for heterogeneous mode)
# to collaborate with the Tracer3 injection flow to maintain a high Tracer3 concentration in the root cells

MICROBIAL_REACTION
  REACTION      Tracer3 -> Tracer4
  
  RATE_CONSTANT 2.d-8     
  
  
  MONOD
    SPECIES_NAME Tracer3
    HALF_SATURATION_CONSTANT 2.d-8
  /
END
########## End of heterogeneous plant-mediated CH4 transport ###########


################################# END OF SIMULATION OF CH4 FLUXES #################################################################






# 4. Model Output

#### NOTE: End of auto-inserted reactions ####

  TRUNCATE_CONCENTRATION 1.d-80


  LOG_FORMULATION
  DATABASE ./hanford.dat

  OUTPUT
    !PH
    
    TOTAL
      O2(aq)
      CH4(aq)
      DOM1
      SO4--
      H2S(aq)
      Tracer1
      Tracer2
      Tracer3
      Tracer5
      Tracer6
  /
END        

# End of the Chemistry Card




# 5. Chemical species concentrations for all constraints


#=========================== transport constraints ============================
# 5.1 Initial Constraint
CONSTRAINT initial

  CONCENTRATIONS
    #### NOTE: Beginning of auto-inserted concentration constraints ####
    DOM1                6.0e-3 T
    H+                  5.9 P 
    O2(aq)              1.d-20 T           
    HCO3-               400e-6 G CO2(g)
    Tracer              0.5
    Tracer1             1.d-20
    Tracer2             1.d-20
    Tracer3             1.d-20
    Tracer4             1.d-20
    Tracer5             1.d-20
    Tracer6             1.d-20
    CH4(aq)             1.4d-3         
    SO4--               5.d-3       #standard run: 5e-3 mol/L
    H2S(aq)             2.d-3       # standard run: 2e-3 mol/L
    #### NOTE: End of auto-inserted concentration constraints ####
  /
 
END




# 5.2 Constraint at the sediment-air-interface, for boundary condition set up
CONSTRAINT sed_air_interface            #define the boundary condition of species concentration at the sediment air interface

  CONCENTRATIONS
    #### NOTE: Beginning of auto-inserted concentration constraints ####
    DOM1                1.d-3
    H+                  5.9 P
    O2(aq)              2.5d-4 T        #at sed_air_interface, the O2 concentration is 100% saturation, in exchange and in equilibrium with atmosphere, unit: mol/L
    HCO3-               400e-6 G CO2(g)
    Tracer              0.1
    Tracer1             1.0e-20
    Tracer2             1.d-20
    Tracer3             1.d-20
    Tracer4             1.d-20
    Tracer5             1.d-20
    Tracer6             1.d-20
    CH4(aq)             1.0e-20
    SO4--               5.d-3      #standard runs: 5e-3 mol/L
    H2S(aq)             1.d-20
    #### NOTE: End of auto-inserted concentration constraints ####
  /

END


# 5.3 Constraint for the injection flow of the liquid containing Tracer2, for CH4 transport

CONSTRAINT Tracer2_inj       #constraint of the Tracer2 injection into root cells or the root layer, to create high Tracer2 concentration in those regions
  
  CONCENTRATIONS
    #### NOTE: Beginning of auto-inserted concentration constraints ####
    DOM1                1.0e-20 T
    H+                  5.9 P 
    O2(aq)              1.d-20 T           
    HCO3-               400e-6 G CO2(g)
    Tracer              1.d-20
    Tracer1             1.d-20
    Tracer2             1.d0       #for plant-mediated transport of CH4, inject Tracer2 to the root cells
    Tracer3             1.d-20
    Tracer4             1.d-20
    Tracer5             1.d-20
    Tracer6             1.d-20
    CH4(aq)             1.d-20         
    SO4--               1.d-20       
    H2S(aq)             1.d-20       
    #### NOTE: End of auto-inserted concentration constraints ####
  /

END


# 5.3 Constraint for the injection flow of the liquid containing Tracer2, for CH4 transport

CONSTRAINT Tracer3_inj       #constraint of the Tracer2 injection into root cells or the root layer, to create high Tracer2 concentration in those regions
  
  CONCENTRATIONS
    #### NOTE: Beginning of auto-inserted concentration constraints ####
    DOM1                1.0e-20 T
    H+                  5.9 P 
    O2(aq)              1.d-20 T           
    HCO3-               400e-6 G CO2(g)
    Tracer              1.d-20
    Tracer1             1.d-20
    Tracer2             1.d-20       #for homogeneous plant-mediated transport of CH4, inject Tracer2 to the root cells
    Tracer3             1.d0        # for heterogeneous plant-mediated transport of CH4
    Tracer4             1.d-20
    Tracer5             1.d-20
    Tracer6             1.d-20
    CH4(aq)             1.d-20         
    SO4--               1.d-20       
    H2S(aq)             1.d-20       
    #### NOTE: End of auto-inserted concentration constraints ####
  /

END



# 5.5 Constraint for liquid containing O2 for injection, ROL
CONSTRAINT O2_inj           #define species concentrations of the liquid for O2 injection into the root cells

  CONCENTRATIONS
    #### NOTE: Beginning of auto-inserted concentration constraints ####
    DOM1                1.d-20         
    H+                  5.9 P
    O2(aq)              3.0d0 T         # set up a high O2 concentration in the liquid being injected, so enough O2 is injected within small amount of liquid, standard run: 1.3 M, it equals to an areal rate of 31.2 mmol m-2 d-1
    HCO3-               400e-6 G CO2(g)
    Tracer              1.0e-20
    Tracer1             1.0e-20
    Tracer2             1.d-20
    Tracer3             1.d-20
    Tracer4             1.d-20
    Tracer5             1.d-20
    Tracer6             1.d-20
    CH4(aq)             1.d-20
    SO4--               1.d-20
    H2S(aq)             1.d-20
    #### NOTE: End of auto-inserted concentration constraints ####
  /
END





#=========================== 6. discretization ===================================
GRID
  TYPE structured
  ORIGIN 0.d0 0.d0 0.d0
  NXYZ 10 10 9

  
  DXYZ
    
    0.01d0\ 
    0.01d0\
    0.01d0\
    0.01d0\
    0.01d0\
    0.01d0\
    0.01d0\
    0.01d0\
    0.01d0\
    0.01d0



    0.01d0\ 
    0.01d0\
    0.01d0\
    0.01d0\
    0.01d0\
    0.01d0\
    0.01d0\
    0.01d0\
    0.01d0\
    0.01d0


    0.25\   #a total of 70cm deep soil cube
    0.20\
    0.10\
    0.075\
    0.05\
    0.015\
    0.005\
    0.003\
    0.002    #the top one is the boundary layer
  END


skip
  BOUNDS 
    0.d0 0.d0 0.d0
    1.d0 1.d0 1.d0   # 1m deep
  /
noskip
END


PROC 1 1 1

#=========================== 7. fluid properties =================================
FLUID_PROPERTY
  PHASE LIQUID
  DIFFUSION_COEFFICIENT 9.d-10  #unit: m2/s   
  #Here I use oxygen diffusion coefficient in water (20C) and accounted for the tortuosity effect following Boudrea 1996, standard runs: 1.3e-9

END

FLUID_PROPERTY
  PHASE GAS
  DIFFUSION_COEFFICIENT 1.d-5
END

#=========================== 8. material properties ==============================
MATERIAL_PROPERTY soil1
  ID 1
  POROSITY 0.8d0
  SOIL_COMPRESSIBILITY_FUNCTION DEFAULT     ! BRAGFLO compressed porosity has mathematical issue at high pressure
  ! 1d-7~1d-8 equivalent to ice expansion of volume, upon 'default' or 'BRAGFLO'
  ! beyond this range may cause tiny-time stepping
  SOIL_COMPRESSIBILITY 1.d-07               ! 1d-7~1d-8 is a critical value for freezing expansion in soil;
  SOIL_REFERENCE_PRESSURE 201325.d0
  TORTUOSITY 1.2         #calculated from porosity following Boudreau 1996
  ROCK_DENSITY 300.0d0    #Luk 2021
  SPECIFIC_HEAT 830.0d0
  THERMAL_CONDUCTIVITY_DRY 0.12037926674717922d0
  THERMAL_CONDUCTIVITY_WET 1.6082691464310437d0
  THERMAL_COND_EXPONENT 0.45d0
  THERMAL_CONDUCTIVITY_FROZEN 2.29d+00
  THERMAL_COND_EXPONENT_FROZEN 0.95d0
  CHARACTERISTIC_CURVES sf01
  PERMEABILITY      #unit: m2, this is to determine how fast water can pass through the soil, Ursino et al. 2004
    PERM_X 5.d-16
    PERM_Y 5.d-16
    PERM_Z 5.d-16
  /
/


#=========================== characteristic curves ============================
CHARACTERISTIC_CURVES sf01
  SATURATION_FUNCTION VAN_GENUCHTEN
    LIQUID_RESIDUAL_SATURATION 0.d0
    ALPHA 4.d-3
    M 0.5d0
    MAX_CAPILLARY_PRESSURE 1.d6
  /
  PERMEABILITY_FUNCTION MUALEM
    PHASE LIQUID
    LIQUID_RESIDUAL_SATURATION 0.d0
    M 0.5d0
  /
  PERMEABILITY_FUNCTION MUALEM_VG_GAS
    PHASE GAS
    LIQUID_RESIDUAL_SATURATION 0.d0
    GAS_RESIDUAL_SATURATION 1.d-40
    M 0.5d0
  /
END




#=========================== 9. regions ==========================================
REGION obs_pt
  COORDINATE  0.05   0.05  0.25d0
  FACE TOP
/


REGION top
  COORDINATES
    0.d0  0.d0 0.7d0
    0.1d0 0.1d0 0.7d0
  /
  FACE TOP
END


REGION top_layer
  COORDINATES
    0.d0 0.d0 0.626d0
    0.1d0 0.1d0 0.7d0
  /
  FACE TOP
END


REGION roots_layer
  COORDINATES
    0.d0 0.d0 0.6d0
    0.1d0 0.1d0 0.6d0
  /
  FACE TOP
END


REGION lower_layers  #the non-surface layers below 0.025m, which are the layers with thickness > 0.05m 
  COORDINATES
    0.d0 0.d0 0.d0
    0.1d0 0.1d0 0.674d0
  /
  FACE BOTTOM
END


REGION all
  COORDINATES
    0.d0 0.d0 0.d0
    0.1d0 0.1d0 0.7d0
  /
  FACE TOP
END




REGION root1
	COORDINATES
		0.085  0.075  0.6
		0.085  0.075  0.6
	/
	FACE TOP
END

REGION root2
	COORDINATES
		0.055  0.065  0.6
		0.055  0.065  0.6
	/
	FACE TOP
END

REGION root3
	COORDINATES
		0.095  0.095  0.6
		0.095  0.095  0.6
	/
	FACE TOP
END

REGION root4
	COORDINATES
		0.095  0.045  0.6
		0.095  0.045  0.6
	/
	FACE TOP
END

REGION root5
	COORDINATES
		0.005  0.015  0.6
		0.005  0.015  0.6
	/
	FACE TOP
END

REGION root6
	COORDINATES
		0.015  0.005  0.6
		0.015  0.005  0.6
	/
	FACE TOP
END

REGION root7
	COORDINATES
		0.055  0.095  0.6
		0.055  0.095  0.6
	/
	FACE TOP
END

REGION root8
	COORDINATES
		0.005  0.065  0.6
		0.005  0.065  0.6
	/
	FACE TOP
END

REGION root9
	COORDINATES
		0.065  0.055  0.6
		0.065  0.055  0.6
	/
	FACE TOP
END

REGION root10
	COORDINATES
		0.065  0.075  0.6
		0.065  0.075  0.6
	/
	FACE TOP
END

REGION root11
	COORDINATES
		0.065  0.035  0.6
		0.065  0.035  0.6
	/
	FACE TOP
END

REGION root12
	COORDINATES
		0.045  0.095  0.6
		0.045  0.095  0.6
	/
	FACE TOP
END

REGION root13
	COORDINATES
		0.015  0.025  0.6
		0.015  0.025  0.6
	/
	FACE TOP
END

REGION root14
	COORDINATES
		0.005  0.035  0.6
		0.005  0.035  0.6
	/
	FACE TOP
END

REGION root15
	COORDINATES
		0.025  0.015  0.6
		0.025  0.015  0.6
	/
	FACE TOP
END

REGION root16
	COORDINATES
		0.015  0.085  0.6
		0.015  0.085  0.6
	/
	FACE TOP
END

REGION root17
	COORDINATES
		0.055  0.025  0.6
		0.055  0.025  0.6
	/
	FACE TOP
END

REGION root18
	COORDINATES
		0.055  0.055  0.6
		0.055  0.055  0.6
	/
	FACE TOP
END

REGION root19
	COORDINATES
		0.035  0.055  0.6
		0.035  0.055  0.6
	/
	FACE TOP
END

REGION root20
	COORDINATES
		0.055  0.045  0.6
		0.055  0.045  0.6
	/
	FACE TOP
END

REGION root21
	COORDINATES
		0.095  0.055  0.6
		0.095  0.055  0.6
	/
	FACE TOP
END

REGION root22
	COORDINATES
		0.045  0.075  0.6
		0.045  0.075  0.6
	/
	FACE TOP
END

REGION root23
	COORDINATES
		0.065  0.065  0.6
		0.065  0.065  0.6
	/
	FACE TOP
END

REGION root24
	COORDINATES
		0.045  0.005  0.6
		0.045  0.005  0.6
	/
	FACE TOP
END

REGION root25
	COORDINATES
		0.065  0.005  0.6
		0.065  0.005  0.6
	/
	FACE TOP
END

REGION root26
	COORDINATES
		0.035  0.095  0.6
		0.035  0.095  0.6
	/
	FACE TOP
END

REGION root27
	COORDINATES
		0.045  0.065  0.6
		0.045  0.065  0.6
	/
	FACE TOP
END

REGION root28
	COORDINATES
		0.015  0.095  0.6
		0.015  0.095  0.6
	/
	FACE TOP
END



REGION root29
	COORDINATES
		0.045  0.045  0.6
		0.045  0.045  0.6
	/
	FACE TOP
END

REGION root30
	COORDINATES
		0.075  0.075  0.6
		0.075  0.075  0.6
	/
	FACE TOP
END

#=========================== observation points ===============================
OBSERVATION
  REGION obs_pt
  AT_COORDINATE    # if not "AT_COORDINATE", then observation data sampled from the center of the cell (by default)
END


#=========================== 11. transport conditions =============================
TRANSPORT_CONDITION initial
  TYPE dirichlet
  TIME_UNITS hr
  CONSTRAINT_LIST
    0.d0 initial
  /
END


TRANSPORT_CONDITION sed_air_interface
  TYPE dirichlet
  TIME_UNITS hr
  CONSTRAINT_LIST
   0.d0 sed_air_interface   
  /
END


TRANSPORT_CONDITION O2_inj
  TYPE dirichlet
  TIME_UNITS hr
  CONSTRAINT_LIST
    0.d0 O2_inj
  /
END


TRANSPORT_CONDITION Tracer2_inj
  TYPE dirichlet
  TIME_UNITS hr
  CONSTRAINT_LIST
    0.d0 Tracer2_inj
  /
END


TRANSPORT_CONDITION Tracer3_inj
  TYPE dirichlet
  TIME_UNITS hr
  CONSTRAINT_LIST
    0.d0 Tracer3_inj
  /
END


#=========================== 12. flow conditions =============================
# 12.1 Flow condition for initial state
FLOW_CONDITION initial
  TYPE
    GAS_PRESSURE dirichlet
    LIQUID_SATURATION dirichlet
    TEMPERATURE dirichlet
  /
  GAS_PRESSURE 1.d5
  LIQUID_SATURATION 1.d0   
  TEMPERATURE 25.d0
/


# 12.2 Flow condition for boundary
FLOW_CONDITION sed_air_interface       #flow condition for the boundary
  TYPE
    GAS_PRESSURE dirichlet
    LIQUID_SATURATION dirichlet
    TEMPERATURE dirichlet
  /
  GAS_PRESSURE 1.d5
  LIQUID_SATURATION 1.d0   
  TEMPERATURE 25.d0
/


#### 12.3 Flow conditions injection (ROL and Tracer2) ###########################

# 12.3.1 Homogeneous O2 (and Tracer2) injection
# inject O2 (and Tracer2) equally into each cell

FLOW_CONDITION ROL_homo
  TYPE
    RATE scaled_volumetric_rate volume
   /
  
  RATE LIST
    TIME_UNITS hr
    DATA_UNITS m^3/hr   m^3/hr   MW       #liquid, gas, energy
      
      0.d0   0.d-8      0.d0    0.d0      #Time, liquid flow rate, gas flow rate, energy flow rate
      12.d0  0.15d-8    0.d0    0.d0
      24.d0  0.45d-8    0.d0    0.d0
      48.d0  1.d-8      0.d0    0.d0
      # If type is volumetric rate, use 1.d-8 divided by number of columns of the simulation domain, 100 columns in the current model settings 
      # If type is scaled_volumeteric_rate, use the total rate input into the entire soil profile
  /
/


# 12.3.2 Flow condition of heterogenous O2 (and Tracer2) injection
# inject Oxygen via several hotspots, to create spatial heterogeneity

FLOW_CONDITION ROL_het    
  TYPE
    RATE scaled_volumetric_rate volume
   /
  
  RATE LIST
    TIME_UNITS hr
    DATA_UNITS m^3/hr   m^3/hr   MW
      
      0.d0    0.d-8     0.d0    0.d0
      12.d0   0.005d-8   0.d0    0.d0
      24.d0   0.015d-8   0.d0    0.d0        #The numbers are time, liquid flow rate, gas flow rate, energy flow rate
      48.d0   0.033d-8   0.d0   0.d0
      # 1.d-8 divided by number of roots, 15 roots for standard runs       
  /
/


################ END OF FLOW CONDIITON FOR O2 INJECTION ####################






#===========================13. condition couplers ===============================

# 13.1 Initial condition
INITIAL_CONDITION     # initial condition for the entire soil column
  TRANSPORT_CONDITION initial
  FLOW_CONDITION initial
  REGION all
END



# 13.2 Boundary condition at the sediment-air-interface

BOUNDARY_CONDITION sed_air_interface
  TRANSPORT_CONDITION sed_air_interface
  FLOW_CONDITION sed_air_interface
  REGION top
END




############### 13.4 Root O2 injection and Tracer2 injection ###########################

skip
########## 13.4.0 No oxygen release mode, but have homogeneous CH4 removal, so have homogeneous injection of Tracer2

SOURCE_SINK Tracer2_inj_homo    # Inject Tracer2 homogeenously into the root layer
  TRANSPORT_CONDITION Tracer2_inj
  FLOW_CONDITION ROL_homo
  REGION roots_layer
END

################ END OF NO OXYGEN MODE ######################
noskip



skip
############### 13.4.1 Homogeneous Mode   #####################
# 13.4.1.1 Inject Oxygen evenly, i.e. no heterogeneity

SOURCE_SINK ROL_homo    #Root Oxygen Release, homogeneous           
  FLOW_CONDITION ROL_homo
  TRANSPORT_CONDITION O2_inj
  REGION roots_layer
END



# 13.4.1.2 Homogeneous Tracer2 injection, for the purpose of homogeneous CH4 transport
# Inject Tracer2 to the root layer homogeneously, i.e., to each root cells equally

SOURCE_SINK Tracer2_inj_homo    # Inject Tracer2 homogeenously into the root layer
  TRANSPORT_CONDITION Tracer2_inj
  FLOW_CONDITION ROL_homo
  REGION roots_layer
END


############### END OF HOMOGENEOUS MODE #####################
noskip




############ 13.4.2 Heterogeneous Injections ###################
# 13.4.2.1 Inject oxygen via certain hotspots to create heterogeneity
########### Note: Begining of heterogeneous O2 injection mode  ##############




SOURCE_SINK ROL_het1
	FLOW_CONDITION ROL_het
	TRANSPORT_CONDITION O2_inj
	REGION root1
END

SOURCE_SINK ROL_het2
	FLOW_CONDITION ROL_het
	TRANSPORT_CONDITION O2_inj
	REGION root2
END

SOURCE_SINK ROL_het3
	FLOW_CONDITION ROL_het
	TRANSPORT_CONDITION O2_inj
	REGION root3
END

SOURCE_SINK ROL_het4
	FLOW_CONDITION ROL_het
	TRANSPORT_CONDITION O2_inj
	REGION root4
END

SOURCE_SINK ROL_het5
	FLOW_CONDITION ROL_het
	TRANSPORT_CONDITION O2_inj
	REGION root5
END

SOURCE_SINK ROL_het6
	FLOW_CONDITION ROL_het
	TRANSPORT_CONDITION O2_inj
	REGION root6
END

SOURCE_SINK ROL_het7
	FLOW_CONDITION ROL_het
	TRANSPORT_CONDITION O2_inj
	REGION root7
END

SOURCE_SINK ROL_het8
	FLOW_CONDITION ROL_het
	TRANSPORT_CONDITION O2_inj
	REGION root8
END

SOURCE_SINK ROL_het9
	FLOW_CONDITION ROL_het
	TRANSPORT_CONDITION O2_inj
	REGION root9
END

SOURCE_SINK ROL_het10
	FLOW_CONDITION ROL_het
	TRANSPORT_CONDITION O2_inj
	REGION root10
END

SOURCE_SINK ROL_het11
	FLOW_CONDITION ROL_het
	TRANSPORT_CONDITION O2_inj
	REGION root11
END

SOURCE_SINK ROL_het12
	FLOW_CONDITION ROL_het
	TRANSPORT_CONDITION O2_inj
	REGION root12
END

SOURCE_SINK ROL_het13
	FLOW_CONDITION ROL_het
	TRANSPORT_CONDITION O2_inj
	REGION root13
END

SOURCE_SINK ROL_het14
	FLOW_CONDITION ROL_het
	TRANSPORT_CONDITION O2_inj
	REGION root14
END

SOURCE_SINK ROL_het15
	FLOW_CONDITION ROL_het
	TRANSPORT_CONDITION O2_inj
	REGION root15
END

SOURCE_SINK ROL_het16
	FLOW_CONDITION ROL_het
	TRANSPORT_CONDITION O2_inj
	REGION root16
END

SOURCE_SINK ROL_het17
	FLOW_CONDITION ROL_het
	TRANSPORT_CONDITION O2_inj
	REGION root17
END

SOURCE_SINK ROL_het18
	FLOW_CONDITION ROL_het
	TRANSPORT_CONDITION O2_inj
	REGION root18
END

SOURCE_SINK ROL_het19
	FLOW_CONDITION ROL_het
	TRANSPORT_CONDITION O2_inj
	REGION root19
END

SOURCE_SINK ROL_het20
	FLOW_CONDITION ROL_het
	TRANSPORT_CONDITION O2_inj
	REGION root20
END

SOURCE_SINK ROL_het21
	FLOW_CONDITION ROL_het
	TRANSPORT_CONDITION O2_inj
	REGION root21
END

SOURCE_SINK ROL_het22
	FLOW_CONDITION ROL_het
	TRANSPORT_CONDITION O2_inj
	REGION root22
END

SOURCE_SINK ROL_het23
	FLOW_CONDITION ROL_het
	TRANSPORT_CONDITION O2_inj
	REGION root23
END

SOURCE_SINK ROL_het24
	FLOW_CONDITION ROL_het
	TRANSPORT_CONDITION O2_inj
	REGION root24
END

SOURCE_SINK ROL_het25
	FLOW_CONDITION ROL_het
	TRANSPORT_CONDITION O2_inj
	REGION root25
END

SOURCE_SINK ROL_het26
	FLOW_CONDITION ROL_het
	TRANSPORT_CONDITION O2_inj
	REGION root26
END

SOURCE_SINK ROL_het27
	FLOW_CONDITION ROL_het
	TRANSPORT_CONDITION O2_inj
	REGION root27
END

SOURCE_SINK ROL_het28
	FLOW_CONDITION ROL_het
	TRANSPORT_CONDITION O2_inj
	REGION root28
END

SOURCE_SINK ROL_het29
	FLOW_CONDITION ROL_het
	TRANSPORT_CONDITION O2_inj
	REGION root29
END

SOURCE_SINK ROL_het30
	FLOW_CONDITION ROL_het
	TRANSPORT_CONDITION O2_inj
	REGION root30
END



########## Note: End of heterogeneous O2 injection mode  ##################



########### 14.4.2.2 Heterogeneous injection of Tracer3 ##############
# Heterogeneous mode of plant-mediated transport of CH4, i.e., CH4 is removed from individual root cells only
# Inject Tracer3 to the root cells to maintain the high concentration of Tracer3_inj within root cells

# Note: begining of the heterogeneous Tracer2 injection




SOURCE_SINK Tracer3_inj1
	FLOW_CONDITION ROL_het
	TRANSPORT_CONDITION Tracer3_inj
	REGION root1
END

SOURCE_SINK Tracer3_inj2
	FLOW_CONDITION ROL_het
	TRANSPORT_CONDITION Tracer3_inj
	REGION root2
END

SOURCE_SINK Tracer3_inj3
	FLOW_CONDITION ROL_het
	TRANSPORT_CONDITION Tracer3_inj
	REGION root3
END

SOURCE_SINK Tracer3_inj4
	FLOW_CONDITION ROL_het
	TRANSPORT_CONDITION Tracer3_inj
	REGION root4
END

SOURCE_SINK Tracer3_inj5
	FLOW_CONDITION ROL_het
	TRANSPORT_CONDITION Tracer3_inj
	REGION root5
END

SOURCE_SINK Tracer3_inj6
	FLOW_CONDITION ROL_het
	TRANSPORT_CONDITION Tracer3_inj
	REGION root6
END

SOURCE_SINK Tracer3_inj7
	FLOW_CONDITION ROL_het
	TRANSPORT_CONDITION Tracer3_inj
	REGION root7
END

SOURCE_SINK Tracer3_inj8