# Description: Simple microbial decomposition and dissolution to DOM network
# Rate constants estimated to show different processes

SIMULATION
  SIMULATION_TYPE SUBSURFACE
  PROCESS_MODELS
    SUBSURFACE_TRANSPORT transport
      MODE GIRT
      OPTIONS
      /
    /

    SUBSURFACE_FLOW flow
      MODE GENERAL
    /
  /
END



SUBSURFACE

#=========================== useful transport parameters =======================
skip
SPECIFIED_VELOCITY
  UNIFORM? YES
  DATASET 0.d0 0.d0 0.d0   #trasnport only, no flow
END
noskip

REFERENCE_LIQUID_DENSITY 1.d3    #1e3 double precision


#=========================== chemistry ========================================
CHEMISTRY
  PRIMARY_SPECIES
  #### NOTE: Beginning of auto-inserted primary species ####
  DOM1
  H+
  O2(aq)
  HCO3-
  Fe+++
  Fe++
  NH4+
  Tracer
  CH4(aq)
  Acetate-
  SO4--
  HS-
  #### NOTE: End of auto-inserted primary species ####
  /




  DECOUPLED_EQUILIBRIUM_REACTIONS   #it means except the reactions defined, don't simulate other possible reactions for these species
  #### NOTE: Beginning of auto-inserted primary species ####
  DOM1
  H+
  O2(aq)
  HCO3-
  Fe+++
  Fe++
  NH4+
  Tracer
  CH4(aq)
  Acetate-
  SO4--
  HS-
  #### NOTE: End of auto-inserted primary species ####
  /




  SECONDARY_SPECIES
  #### NOTE: Beginning of auto-inserted secondary species ####
  CO2(aq)    
  OH-
  FeCO3+
  CO3--
  #### NOTE: End of auto-inserted secondary species ####
  /



  MINERALS
  #### NOTE: Beginning of auto-inserted secondary species ####
  Fe(OH)3
  FeO
  #### NOTE: End of auto-inserted secondary species ####
  /



  MINERAL_KINETICS
  #### NOTE: Beginning of auto-inserted secondary species ####
  Fe(OH)3
    RATE_CONSTANT  1.d-7 mol/m^2-sec
  /
  FeO
    RATE_CONSTANT  1.d-7 mol/m^2-sec
  /
  #### NOTE: End of auto-inserted secondary species ####
  /


  IMMOBILE_SPECIES  #usually organic matter or microbial biomass
  #### NOTE: Beginning of auto-inserted immobile species ####
  cellulose
  HRimm
  #### NOTE: End of auto-inserted immobile species ####
  /


  PASSIVE_GAS_SPECIES   # gas species not reacting/interacting with anything
  #### NOTE: Beginning of auto-inserted gas species ####
  CO2(g)
  O2(g)
  H2O(g)
  #### NOTE: End of auto-inserted gas species ####
  /



  #### NOTE: Beginning of auto-inserted reactions ####  user-defined
  # DOM aerobic respiration
  MICROBIAL_REACTION
    REACTION 1.0e+00 DOM1  + 1.0e+00 O2(aq)  -> 1.0e+00 HCO3-  + 1.0e+00 H+  + 1.0e+00 Tracer 
    RATE_CONSTANT       1.0e-050
    MONOD
      SPECIES_NAME        O2(aq)
      HALF_SATURATION_CONSTANT 1.0e-08
      THRESHOLD_CONCENTRATION 1.0e-12
    /
    MONOD
      SPECIES_NAME        DOM1
      HALF_SATURATION_CONSTANT 1.0e-08
      THRESHOLD_CONCENTRATION 1.0e-14
    /
  /


  # Fe reduction
  MICROBIAL_REACTION
    REACTION 1.0e+00 DOM1  + 3.0e+00 Fe+++  -> 1.0e+00 HCO3-  + 3.0e+00 Fe++  + 1.5e+01 H+  + 1.0e+00 Tracer 
    RATE_CONSTANT       2.0e-060
    MONOD
      SPECIES_NAME        DOM1
      HALF_SATURATION_CONSTANT 2.0e-03
      THRESHOLD_CONCENTRATION 1.0e-15
    /
    MONOD
      SPECIES_NAME        Fe+++
      HALF_SATURATION_CONSTANT 1.3e-03
      THRESHOLD_CONCENTRATION 1.0e-15
    /
    INHIBITION
      SPECIES_NAME        O2(aq)
      TYPE MONOD
      INHIBITION_CONSTANT 6.2e-08
    /
  /

  skip
  #CH4 production from acetate
  MICROBIAL_REACTION
    REACTION Acetate- + H2O -> HCO3- + CH4(aq)
    RATE_CONSTANT    2.0E-03
    MONOD
      SPECIES_NAME         Acetate-
      HALF_SATURATION_CONSTANT    2.0e-03
      THRESHOLD_CONCENTRATION    1.0e-15
    /

    INHIBITION     
      SPECIES_NAME     O2(aq)
      TYPE MONOD
      INHIBITION_CONSTANT 6.2e0
    /
  /
  noskip


  #CH4 production from DOM
  MICROBIAL_REACTION
    REACTION Acetate- + H2O -> HCO3- + CH4(aq)
    RATE_CONSTANT    2.0E-03
    MONOD
      SPECIES_NAME         Acetate-
      HALF_SATURATION_CONSTANT    2.0e-03
      THRESHOLD_CONCENTRATION    1.0e-15
    /

    INHIBITION     
      SPECIES_NAME     O2(aq)
      TYPE MONOD
      INHIBITION_CONSTANT 6.2e0
    /
  /


  #sulfate reduction
  MICROBIAL_REACTION
    REACTION Acetate- + SO4-- -> HS- + 2 HCO3-
    RATE_CONSTANT    2.0e-02
    MONOD
      SPECIES_NAME     Acetate-
      HALF_SATURATION_CONSTANT    2.0e-03
      THRESHOLD_CONCENTRATION    1.0e-15
    /

    INHIBITION     
      SPECIES_NAME     O2(aq)
      TYPE MONOD
      INHIBITION_CONSTANT 6.2e0
    /
  /
       





  REACTION_SANDBOX  #define any reactions not aqueous
    SOMDECOMP
      POOLS
        cellulose           50.0
        DOM1                50.0
      /
    # Fermentation hydrolysis
    REACTION
      UPSTREAM_POOL       cellulose   #comment is comment
      DOWNSTREAM_POOL     DOM1                6.7e-01  #fraction of cellulose decomposed to DOM1
      TURNOVER_TIME       10000 y
      INHIBITION
        SPECIES_NAME        DOM1
        TYPE MONOD
        INHIBITION_CONSTANT 1.0e-05
      /
    /
      CO2_SPECIES_NAME HCO3-
      
      O2_SPECIES_NAME O2(aq)
      
    /
  /

  #### NOTE: End of auto-inserted reactions ####


  TRUNCATE_CONCENTRATION 1.d-80


  LOG_FORMULATION
  DATABASE ./hanford.dat

  OUTPUT
    !PH
    TOTAL
      !CH4(aq)
      O2(aq)
      !DOIMMOBILEM1
      #SO4--
      #HS-
      #HCO3-
      #CO2(aq)
      #CO3--
    #FREE_ION
    #PRIMARY_SPECIES
    #SECONDARY_SPECIES
    #GASES
    #MINERALS
    #IMMOBILE
  /
END

#=========================== transport constraints ============================
CONSTRAINT initial
  IMMOBILE
    #### NOTE: Beginning of auto-inserted immobile species ####
    cellulose            1.0e-03
    HRimm                1.0e-20
    #### NOTE: End of auto-inserted immobile species ####
  /
  CONCENTRATIONS
    #### NOTE: Beginning of auto-inserted concentration constraints ####
    DOM1                1.0e-03
    H+                  10.0 P
    O2(aq)              1.0e-10
    HCO3-               400e-6 G CO2(g)    # specify the concentration of HCO3- when it is in equilibrium with atm CO2(g)
    Fe+++               0.37e-3 M Fe(OH)3
    Fe++                0.37e-10
    NH4+                1.0e-15
    Tracer              1.0e-15
    CH4(aq)             1.0e-15
    Acetate-            1.0e-2
    SO4--               1.0e-1
    HS-                 1.0e-20
    #### NOTE: End of auto-inserted concentration constraints ####
  /
  MINERALS
    #### NOTE: Beginning of auto-inserted mineral constraints ####
    Fe(OH)3             1.d-5  1.e2 m^2/m^3
    FeO                 0.0  1. m^2/m^3
    #### NOTE: End of auto-inserted mineral constraints ####
  /

  
END


CONSTRAINT dom_enrich     #define the initial condition for a "dom_enriched layer"
  IMMOBILE
    #### NOTE: Beginning of auto-inserted immobile species ####
    cellulose            1.0e+03
    HRimm                1.0e-20
    #### NOTE: End of auto-inserted immobile species ####
  /
  CONCENTRATIONS
    #### NOTE: Beginning of auto-inserted concentration constraints ####
    DOM1                1.0e-1
    H+                  10.0 P
    O2(aq)              1.0e-10
    HCO3-               400e-6 G CO2(g)
    Fe+++               0.37e-3 M Fe(OH)3
    Fe++                0.37e-10
    NH4+                1.0e-15
    Tracer              1.0e-15
    CH4(aq)             1.0e-15
    Acetate-            1.0e-2
    SO4--               1.0e-1
    HS-                 1.0e-20
    #### NOTE: End of auto-inserted concentration constraints ####
  /
  MINERALS
    #### NOTE: Beginning of auto-inserted mineral constraints ####
    Fe(OH)3             1.d-5  1.e2 m^2/m^3
    FeO                 0.0  1. m^2/m^3
    #### NOTE: End of auto-inserted mineral constraints ####
  /  
END

CONSTRAINT bc
  IMMOBILE
    #### NOTE: Beginning of auto-inserted immobile species ####
    cellulose            1.0e-20
    HRimm                1.0e-20
    #### NOTE: End of auto-inserted immobile species ####
  /
  CONCENTRATIONS
    #### NOTE: Beginning of auto-inserted concentration constraints ####
    DOM1                1.0e-20
    H+                  1.0e-20
    O2(aq)              1.0e-01 G O2(g)
    HCO3-               1.0e-20
    Fe+++               1.0e-20
    Fe++                1.0e-20
    NH4+                1.0e-20
    Tracer              1.0e-20
    CH4(aq)             1.0e-20
    Acetate-            1.0e-02
    SO4--               1.0e-01
    HS-                 1.0e-20
    #### NOTE: End of auto-inserted concentration constraints ####
  /
  MINERALS
    #### NOTE: Beginning of auto-inserted mineral constraints ####
    Fe(OH)3             1.0e-20 1.0
    FeO                 1.0e-20 1.0
    #### NOTE: End of auto-inserted mineral constraints ####
  /

END

#=========================== solver options ===================================
NUMERICAL_METHODS TRANSPORT
  LINEAR_SOLVER
    SOLVER DIRECT
    !SOLVER ITERATIVE     ! default: ITERATIVE or KRYLOV: KSP_TYPE of BCGS and PC_TYPE of BJACOBI, if not modified below
    PC_TYPE JACOBI       ! default (iterative): BJACOBI. 
    KSP_TYPE fgmres      ! default: BCGS. NOT much difference 
  /

  NEWTON_SOLVER TRANSPORT
    NUMERICAL_JACOBIAN
    ATOL 1.d-20
    RTOL 1.d-15
    STOL 1.d-10
    ITOL 1.d-10
  /
END

skip
noskip

#=========================== discretization ===================================
GRID
  TYPE structured
  ORIGIN 0.d0 0.d0 0.d0
  NXYZ 2 1 3   #two colums, three layers, O2 injection in the middle
  DXYZ   #spacing
    2@1

    1@1

    1@4.9 1@0.2 1@4.9 
    
  /

skip
  BOUNDS
    0.d0 0.d0 0.d0
    1.d0 1.d0 10.d0   #divide the axis evenly between the bounds
  /
noskip 
END

#=========================== fluid properties =================================
FLUID_PROPERTY
  PHASE LIQUID
  DIFFUSION_COEFFICIENT 1.d-20
END

FLUID_PROPERTY
  PHASE gas
  DIFFUSION_COEFFICIENT 1.000d-5
END

#=========================== CHARACTERISTIC_CURVES ==============================
CHARACTERISTIC_CURVES cc1
  SATURATION_FUNCTION VAN_GENUCHTEN
    LIQUID_RESIDUAL_SATURATION 0.d0
    M 0.5d0
    ALPHA 1.d-4
    MAX_CAPILLARY_PRESSURE 1.d6
  /
  PERMEABILITY_FUNCTION MUALEM_VG_LIQ
    LIQUID_RESIDUAL_SATURATION 0.d0
    M 0.5d0
  /
  PERMEABILITY_FUNCTION MUALEM_VG_GAS
    LIQUID_RESIDUAL_SATURATION 0.d0
    GAS_RESIDUAL_SATURATION 1.d-40
    M 0.5d0
  /
/
#=========================== material properties ==============================
MATERIAL_PROPERTY soil1
  ID 1
  POROSITY 0.25d0
  TORTUOSITY 1.d0
 ! SATURATION_FUNCTION default
  CHARACTERISTIC_CURVES cc1
  HEAT_CAPACITY 800.
  THERMAL_CONDUCTIVITY_DRY 0.5
  THERMAL_CONDUCTIVITY_WET 2.
  ROCK_DENSITY 2560.d0
  PERMEABILITY
    PERM_ISO 1.d-17
  /
END

skip
# == saturation / permeability functions ======================================
SATURATION_FUNCTION HD
SATURATION_FUNCTION_TYPE VAN_GENUCHTEN
RESIDUAL_SATURATION 0.115
LAMBDA 0.286
ALPHA 1.9401d-4
/
noskip

#=========================== output options ===================================
OUTPUT
  #PERIODIC_OBSERVATION TIMESTEP 1
  PERIODIC_OBSERVATION TIME 6 hour  #print output every 100 day
  SCREEN PERIODIC 10
  PERIODIC TIME 1 day
  #PERIODIC TIMESTEP 1
  #FORMAT HDF5
  VARIABLES
    !POROSITY
    /
  FORMAT TECPLOT POINT
  MASS_BALANCE_FILE
    PERIODIC TIMESTEP 1
  /


OBSERVATION_FILE
    TIMES day 1 3 5
    NO_PRINT_FINAL
  /

END
#=========================== times ============================================
TIME
  FINAL_TIME 5 d

  INITIAL_TIMESTEP_SIZE 0.5d0 h
  MAXIMUM_TIMESTEP_SIZE 12.d0 h
END


#=========================== regions ==========================================
REGION all
  COORDINATES
    0.d0 0.d0 0.d0
    2.d0 1.d0 10.d0
  /
END


REGION bottom
  COORDINATES
    0.d0 0.d0 0.d0
    2.d0 1.d0 4.9
  /
END

REGION dom_enrich
  COORDINATES
    0.d0 0.d0 4.9
    2.d0 1.d0 5.1
  /
END


REGION top
  COORDINATES
    0.d0 0.d0 5.1
    2.d0 1.d0 9.9
  /
END

REGION obs_pt_mid
  COORDINATE 0.1 0.1 5.0  
END

REGION obs_pt_top
  COORDINATE 0.1 0.1 7.0  
END

REGION obs_pt_bc
  COORDINATE 0.1 0.1 9.95
END

REGION bc
  COORDINATES
  0.d0 0.d0 9.9
  2.d0 1.d0 10.d0
/
  FACE TOP
END

#=========================== observation points ===============================
OBSERVATION
  REGION obs_pt_top
  AT_COORDINATE
END

OBSERVATION
  REGION obs_pt_mid
  AT_COORDINATE
END

OBSERVATION
  REGION obs_pt_bc
  AT_COORDINATE
END

#=========================== transport conditions =============================
TRANSPORT_CONDITION initial
  TYPE DIRICHLET
  CONSTRAINT_LIST
    0.d0 initial
  /
END

TRANSPORT_CONDITION dom_enrich
  TYPE DIRICHLET
  CONSTRAINT_LIST
    0.d0 dom_enrich
  /
END

TRANSPORT_CONDITION bc_transport
  TYPE DIRICHLET_ZERO_GRADIENT
  CONSTRAINT_LIST
    0.d0 bc
  /
END


FLOW_CONDITION fc
 TYPE 
  GAS_PRESSURE DIRICHLET
  GAS_SATURATION DIRICHLET
  TEMPERATURE DIRICHLET
  
 /
 GAS_PRESSURE 100
 GAS_SATURATION 0.25d0
 TEMPERATURE 30

END



#=========================== condition couplers ===============================
# initial condition
INITIAL_CONDITION
  TRANSPORT_CONDITION initial
  FLOW_CONDITION fc
  REGION all
/

skip
INITIAL_CONDITION
  TRANSPORT_CONDITION initial
  REGION bottom
END

INITIAL_CONDITION
  TRANSPORT_CONDITION dom_enrich
  FLOW_CONDITION fc
  REGION dom_enrich
END
noskip


BOUNDARY_CONDITION edge
  TRANSPORT_CONDITION bc_transport
  FLOW_CONDITION fc
  REGION bc
END



#=========================== stratigraphy couplers ============================
STRATA
  REGION all
  MATERIAL soil1            # to modify the soil property
END

#=========================== regression =======================================
REGRESSION
  CELL_IDS
    1
  /
END

END_SUBSURFACE
