# This is PFLOTRAN inpu deck
# Description: Simple microbial decomposition and dissolution to DOM network
# Rate constants estimated to show different processes

SIMULATION
  SIMULATION_TYPE SUBSURFACE
  PROCESS_MODELS
    SUBSURFACE_FLOW flow
      MODE GENERAL
      OPTIONS
        #ARITHMETIC_GAS_DIFFUSIVE_DENSITY
      /
    /
    SUBSURFACE_TRANSPORT transport
      MODE GIRT
      #NUMERICAL_JACOBIAN
    /
  /
END

SUBSURFACE

#=========================== useful transport parameters =======================

REFERENCE_LIQUID_DENSITY 1.d3


#=========================== chemistry ========================================
CHEMISTRY
PRIMARY_SPECIES
  #### NOTE: Beginning of auto-inserted primary species ####
  DOM1
  H+
  O2(aq)
  HCO3-
  NH4+
  Fe+++
  Fe++
  Tracer        #for recharge of DOM and SO4--
  Tracer1         #Tracer1 is for threshold_concentration based removal of methane, which produced Tracer1
  Tracer2         #Tracer2 is to keep track of CH4
  Tracer3         #Tracer2 and Tracer3 are both to keep track of CH4, and used in the artificial CH4 ebullition reaction
  CH4(aq)
  SO4--
  H2S(aq)
  #### NOTE: End of auto-inserted primary species ####
/
DECOUPLED_EQUILIBRIUM_REACTIONS
  #### NOTE: Beginning of auto-inserted primary species ####
  DOM1
  H+
  O2(aq)
  HCO3-
  Fe+++
  Fe++
  NH4+
  Tracer
  CH4(aq)
  H2S(aq)
  #### NOTE: End of auto-inserted primary species ####
/
SECONDARY_SPECIES
  #### NOTE: Beginning of auto-inserted secondary species ####
  CO2(aq)
  OH-
  FeCO3+
  #### NOTE: End of auto-inserted secondary species ####
/
MINERALS
  #### NOTE: Beginning of auto-inserted secondary species ####
  Fe(OH)3
  FeO
  #### NOTE: End of auto-inserted secondary species ####
/
MINERAL_KINETICS
  #### NOTE: Beginning of auto-inserted secondary species ####
  Fe(OH)3
    RATE_CONSTANT  1.d-7 mol/m^2-sec
  /
  FeO
    RATE_CONSTANT  1.d-7 mol/m^2-sec
  /
  #### NOTE: End of auto-inserted secondary species ####
/
IMMOBILE_SPECIES
  #### NOTE: Beginning of auto-inserted immobile species ####
  cellulose
  HRimm


  #### NOTE: End of auto-inserted immobile species ####
/
PASSIVE_GAS_SPECIES
  #### NOTE: Beginning of auto-inserted gas species ####
  CO2(g)
  O2(g)
  #### NOTE: End of auto-inserted gas species ####
/




#### NOTE: Beginning of auto-inserted reactions ####
  #DOM Aerobic RESPIRATION
 MICROBIAL_REACTION
    REACTION 1.0 DOM1 + 1.0 O2(aq) -> 1.0 HCO3- + 1.0 H+ + 1.d-1 NH4+   # 1 molecule of DOM1 here in this model contains 1 carbon atom
    RATE_CONSTANT 2.d-8   #unit: mol L-1 s-1

    MONOD
      SPECIES_NAME O2(aq)
      HALF_SATURATION_CONSTANT 1.d-4   
    /

    
    MONOD
      SPECIES_NAME DOM1
      HALF_SATURATION_CONSTANT 5.d-3  
    /
    
    skip
    BIOMASS
      SPECIES_NAME microbes1
      YIELD 0.01d0   #the portion of the energy transfered to microbes to support the growth of microbes
    /
    noskip
  /


# DOM1 Methanogenesis
MICROBIAL_REACTION    
  REACTION 2.0 DOM1 + 2.0 H2O -> 1.0 CH4(aq) + 1.0 HCO3- + 1.0 H+ + 1.0 Tracer2 + 1.0 Tracer3
  RATE_CONSTANT 5.d-10   # unit: mol L-1 s-1, derived from Weston 2014

  MONOD
    SPECIES_NAME  DOM1
    HALF_SATURATION_CONSTANT 2.d-3
  /


  INHIBITION
    SPECIES_NAME O2(aq)
    TYPE MONOD
    INHIBITION_CONSTANT 2.5d-4            # Yuan et al. 2009, exposure to O2 for 24h decreased methane production rate by ~50%
  /

/


#Methane oxidation - O2
  MICROBIAL_REACTION 
    REACTION 1.0 CH4(aq) + 2.0 O2(aq) + 1.0 Tracer2 + 1.0 Tracer3 -> 1.0 HCO3- + 1.0 H+ + 1.0 H2O 
    
    RATE_CONSTANT 4.d-9         
    
    
    MONOD
      SPECIES_NAME O2(aq)
      HALF_SATURATION_CONSTANT 1.d-4  
    /

    MONOD
      SPECIES_NAME CH4(aq)
      HALF_SATURATION_CONSTANT 3.d-4
    /

  /

  


#Sulfate reduction DOM1
  MICROBIAL_REACTION 
    REACTION 2.d0 DOM1 + 1.d0 SO4-- -> 2.d0 HCO3- + 2.0 H+ + 1.0d0 H2S(aq) + 1.d-1 NH4+
   
    RATE_CONSTANT 5.d-9   
    
    MONOD
      SPECIES_NAME DOM1
      HALF_SATURATION_CONSTANT 2.d-3    
    /


    MONOD
      SPECIES_NAME SO4--
      HALF_SATURATION_CONSTANT 5.d-3    #based on the SO4-- concentration
    / 
  /




#Sulfide oxidation
  MICROBIAL_REACTION 
    REACTION 1.d0 H2S(aq) + 2.d0 O2(aq) -> 1.d0 SO4-- + 2.d0 H+ 
    
    RATE_CONSTANT 1.d-7 #mol L-1 s-1   

    MONOD
      SPECIES_NAME O2(aq)
      HALF_SATURATION_CONSTANT 1.d-4
    /

    MONOD
      SPECIES_NAME H2S(aq)
      HALF_SATURATION_CONSTANT 5.d-4 
    /
    
  
  /



# DOM recharge throughout the whole soil column, this is actually the hydrolysis of SOM to DOM
# to avoid depletion of DOM

MICROBIAL_REACTION 
    REACTION Tracer -> DOM1 
    
    RATE_CONSTANT 1.3d-8     # unit: mol L-1 s-1
    
    
    MONOD
      SPECIES_NAME  Tracer
      HALF_SATURATION_CONSTANT   0.1
    /      
  /




# SO4-- recharge throughout the whole soil column
MICROBIAL_REACTION 
    REACTION Tracer -> SO4-- 
    
    RATE_CONSTANT 4.d-9     # unit: mol L-1 s-1
    
    
    MONOD
      SPECIES_NAME  Tracer
      HALF_SATURATION_CONSTANT   0.1
    /      
  /



# CH4 removal to simulate ebullition
# the threshold_concentration does not work
# so I have set up three Monod terms to simulate an exponential increase in CH4 removal rate with CH4 concentration

MICROBIAL_REACTION
  REACTION    1.0 CH4(aq) + 1.0 Tracer2 + 1.0 Tracer3  -> 1.0 Tracer1

  RATE_CONSTANT  4.d-7          #this need to be adjusted depending on the methanogenesis rate, otherwise methane can still accumulate
  
  MONOD
    SPECIES_NAME  CH4(aq)
    HALF_SATURATION_CONSTANT   1.d-2   
  /

  MONOD
    SPECIES_NAME  Tracer2
    HALF_SATURATION_CONSTANT   1.d-2   
  /

  MONOD
    SPECIES_NAME  Tracer3
    HALF_SATURATION_CONSTANT   1.d-2   
  /   
END



#### NOTE: End of auto-inserted reactions ####

  TRUNCATE_CONCENTRATION 1.d-80


  LOG_FORMULATION
  DATABASE ./hanford.dat

  OUTPUT
    !PH
    
    TOTAL
      O2(aq)
      CH4(aq)
      DOM1
      SO4--
      H2S(aq)
      Tracer2

     
    #FREE_ION
    #PRIMARY_SPECIES
    #SECONDARY_SPECIES
    #GASES
    #MINERALS
    #IMMOBILE
      #microbes1
      #microbes2
      #microbes3
      #microbes4
      #microbes5
 

  /
END

#=========================== transport constraints ============================
CONSTRAINT initial
  IMMOBILE
    #### NOTE: Beginning of auto-inserted immobile species ####
    cellulose            1.0e+03
    HRimm                1.0e-20
    # microbes1             100.d0    # mol-C/m3  of microbial biomass, not mols of cell counts, ballpark range from Steinmuller et al. 2019
    # microbes2             100.d0
    # microbes3             100.d0
    # microbes4             100.d0
    # microbes5             100.d0
    #### NOTE: End of auto-inserted immobile species ####
  /
  CONCENTRATIONS
    #### NOTE: Beginning of auto-inserted concentration constraints ####
    DOM1                6.0e-3 T
    H+                  5.9 P 
    O2(aq)              2.d-6 T           
    #the initial concentration of O2 for the soil porewater; it should not be higher than 2e-4, otherwise it cause problems 
    HCO3-               400e-6 G CO2(g)
    Fe+++               0.37e-3 M Fe(OH)3
    Fe++                0.37e-10
    NH4+                1.0e-6
    Tracer              0.1
    Tracer1             1.d-20
    Tracer2             1.d-20
    Tracer3             1.d-20
    CH4(aq)             1.d-20         
    SO4--               5.d-3
    H2S(aq)             1.d-20
    #### NOTE: End of auto-inserted concentration constraints ####
  /
  MINERALS
    #### NOTE: Beginning of auto-inserted mineral constraints ####
    Fe(OH)3             1.d-5  1.e2 m^2/m^3
    FeO                 0.0  1. m^2/m^3
    #### NOTE: End of auto-inserted mineral constraints ####
  /  
END



CONSTRAINT sed_air_interface
  IMMOBILE
    #### NOTE: Beginning of auto-inserted immobile species ####
    cellulose            1.0e+03
    HRimm                1.0e-20
    
    #### NOTE: End of auto-inserted immobile species ####
  /
  CONCENTRATIONS
    #### NOTE: Beginning of auto-inserted concentration constraints ####
    DOM1                1.e-3
    H+                  5.9 P
    O2(aq)              2.5d-4 T        #sed_air_interface, when fully inundated, set to be 10% saturated with O2
    HCO3-               400e-6 G CO2(g)
    Fe+++               0.37e-3 M Fe(OH)3
    Fe++                0.37e-10
    NH4+                1.0e-15
    Tracer              0.1
    Tracer1             1.0e-20
    Tracer2             1.d-20
    Tracer3             1.d-20
    CH4(aq)             1.0e-15
    SO4--               5.d-3
    H2S(aq)             1.d-20
    #### NOTE: End of auto-inserted concentration constraints ####
  /
  MINERALS
    #### NOTE: Beginning of auto-inserted mineral constraints ####
    Fe(OH)3             1.d-5  1.e2 m^2/m^3
    FeO                 0.0  1. m^2/m^3
    #### NOTE: End of auto-inserted mineral constraints ####
  /  
END

CONSTRAINT O2_diffusion
  IMMOBILE
    #### NOTE: Beginning of auto-inserted immobile species ####
    cellulose            1.0e+03
    HRimm                1.0e-20
    
    #### NOTE: End of auto-inserted immobile species ####
  /
  CONCENTRATIONS
    #### NOTE: Beginning of auto-inserted concentration constraints ####
    DOM1                1.e-20
    H+                  5.9 P
    O2(aq)              8.d0 T        
    HCO3-               400e-6 G CO2(g)
    Fe+++               0.37e-3 M Fe(OH)3
    Fe++                0.37e-10
    NH4+                1.0e-15
    Tracer              1.0e-15
    Tracer1             1.0e-20
    Tracer2             1.d-20
    Tracer3             1.d-20
    CH4(aq)             1.0e-20
    SO4--               5.d-3
    H2S(aq)             1.d-20
    #### NOTE: End of auto-inserted concentration constraints ####
  /
  MINERALS
    #### NOTE: Beginning of auto-inserted mineral constraints ####
    Fe(OH)3             1.d-5  1.e2 m^2/m^3
    FeO                 0.0  1. m^2/m^3
    #### NOTE: End of auto-inserted mineral constraints ####
  /  
END


CONSTRAINT bottom_boundary
  IMMOBILE
    #### NOTE: Beginning of auto-inserted immobile species ####
    cellulose            1.0e+03
    HRimm                1.0e-20
    
    #### NOTE: End of auto-inserted immobile species ####
  /
  CONCENTRATIONS
    #### NOTE: Beginning of auto-inserted concentration constraints ####
    DOM1                1.e-2
    H+                  5.9 P
    O2(aq)              1.d-20 T        #bottom boundary, oxygen should be zero
    HCO3-               400e-6 G CO2(g)
    Fe+++               0.37e-3 M Fe(OH)3
    Fe++                0.37e-10
    NH4+                1.0e-15
    Tracer              1.0e-15
    Tracer1             1.0e-20
    Tracer2             1.d-20
    Tracer3             1.d-20
    CH4(aq)             2.d-4
    SO4--               5.d-3
    H2S(aq)             3.d-4
    #### NOTE: End of auto-inserted concentration constraints ####
  /
  MINERALS
    #### NOTE: Beginning of auto-inserted mineral constraints ####
    Fe(OH)3             1.d-5  1.e2 m^2/m^3
    FeO                 0.0  1. m^2/m^3
    #### NOTE: End of auto-inserted mineral constraints ####
  /  
END



CONSTRAINT root           #constraint of the location of roots, used for the boundary condition
  IMMOBILE
    #### NOTE: Beginning of auto-inserted immobile species ####
    cellulose            1.0e+03
    HRimm                1.0e-20
    
    #### NOTE: End of auto-inserted immobile species ####
  /
  CONCENTRATIONS
    #### NOTE: Beginning of auto-inserted concentration constraints ####
    DOM1                1.d-20         
    H+                  5.9 P
    O2(aq)              1.3d0 T         #when sulfur cycling is included, O2 conc. is 1.3 M; if there is no S cycling, O2 conc. is 0.3 M 
    HCO3-               400e-6 G CO2(g)
    Fe+++               0.37e-3 M Fe(OH)3
    Fe++                0.37e-10
    NH4+                1.0e-15
    Tracer              1.0e-20
    Tracer1             1.0e-20
    Tracer2             1.d-20
    Tracer3             1.d-20
    CH4(aq)             1.0e-20
    SO4--               1.d-20
    H2S(aq)             1.d-20
    #### NOTE: End of auto-inserted concentration constraints ####
  /
  MINERALS
    #### NOTE: Beginning of auto-inserted mineral constraints ####
    Fe(OH)3             1.d-5  1.e2 m^2/m^3
    FeO                 0.0  1. m^2/m^3
    #### NOTE: End of auto-inserted mineral constraints ####
  /  
END


CONSTRAINT tide
  IMMOBILE
    #### NOTE: Beginning of auto-inserted immobile species ####
    cellulose            1.0e-20
    HRimm                1.0e-20
    
    #### NOTE: End of auto-inserted immobile species ####
  /
  CONCENTRATIONS
    #### NOTE: Beginning of auto-inserted concentration constraints ####
    DOM1                1.0e-20
    H+                  1.0e-20
    O2(aq)              5.0e-5 T
    HCO3-               1.0e-20
    Fe+++               1.0e-20
    Fe++                1.0e-20
    NH4+                1.0e-20
    Tracer         1.0e-20
    Tracer1          1.0e-20
    Tracer2          1.d-20
    Tracer3             1.d-20
    CH4(aq)             1.0e-20
    SO4--               1.d-20
    H2S(aq)             1.d-20
    #### NOTE: End of auto-inserted concentration constraints ####
  /
  MINERALS
    #### NOTE: Beginning of auto-inserted mineral constraints ####
    Fe(OH)3             1.0e-20 1.0
    FeO                 1.0e-20 1.0
    #### NOTE: End of auto-inserted mineral constraints ####
  /

END



#=========================== solver options ===================================
NUMERICAL_METHODS TRANSPORT
  LINEAR_SOLVER
    SOLVER DIRECT
    !SOLVER ITERATIVE     ! default: ITERATIVE or KRYLOV: KSP_TYPE of BCGS and PC_TYPE of BJACOBI, if not modified below
    PC_TYPE JACOBI       ! default (iterative): BJACOBI. 
    KSP_TYPE fgmres      ! default: BCGS. NOT much difference 
  /

  NEWTON_SOLVER TRANSPORT
    NUMERICAL_JACOBIAN
    ATOL 1.d-20
    RTOL 1.d-15
    STOL 1.d-10
    ITOL 1.d-10
  /
END

#=========================== discretization ===================================
GRID
  TYPE structured
  ORIGIN 0.d0 0.d0 0.d0
  NXYZ 10 10 9

  
  DXYZ
    
    0.01d0\ 
    0.01d0\
    0.01d0\
    0.01d0\
    0.01d0\
    0.01d0\
    0.01d0\
    0.01d0\
    0.01d0\
    0.01d0



    0.01d0\ 
    0.01d0\
    0.01d0\
    0.01d0\
    0.01d0\
    0.01d0\
    0.01d0\
    0.01d0\
    0.01d0\
    0.01d0


    0.25\   #a total of 70cm deep soil cube
    0.20\
    0.10\
    0.075\
    0.05\
    0.015\
    0.005\
    0.003\
    0.002    #the top one is the boundary layer
  END


skip
  BOUNDS 
    0.d0 0.d0 0.d0
    1.d0 1.d0 1.d0   # 1m deep
  /
noskip
END


PROC 1 1 1

#=========================== fluid properties =================================
FLUID_PROPERTY
  PHASE LIQUID
  DIFFUSION_COEFFICIENT 1.3d-9  #unit: m2/s   
  #Here I use oxygen diffusion coefficient in water (20C) and accounted for the tortuosity effect following Boudrea 1996

END

FLUID_PROPERTY
  PHASE GAS
  DIFFUSION_COEFFICIENT 2.d-5
END

#=========================== material properties ==============================
MATERIAL_PROPERTY soil1
  ID 1
  POROSITY 0.8d0
  SOIL_COMPRESSIBILITY_FUNCTION DEFAULT     ! BRAGFLO compressed porosity has mathematical issue at high pressure
  ! 1d-7~1d-8 equivalent to ice expansion of volume, upon 'default' or 'BRAGFLO'
  ! beyond this range may cause tiny-time stepping
  SOIL_COMPRESSIBILITY 1.d-07               ! 1d-7~1d-8 is a critical value for freezing expansion in soil;
  SOIL_REFERENCE_PRESSURE 201325.d0
  ROCK_DENSITY 2650.0d0
  SPECIFIC_HEAT 830.0d0
  THERMAL_CONDUCTIVITY_DRY 0.12037926674717922d0
  THERMAL_CONDUCTIVITY_WET 1.6082691464310437d0
  THERMAL_COND_EXPONENT 0.45d0
  THERMAL_CONDUCTIVITY_FROZEN 2.29d+00
  THERMAL_COND_EXPONENT_FROZEN 0.95d0
  CHARACTERISTIC_CURVES sf01
  PERMEABILITY
    PERM_X 1.d-11
    PERM_Y 1.d-11
    PERM_Z 1.d-11
  /
/


#=========================== characteristic curves ============================
CHARACTERISTIC_CURVES sf01
  SATURATION_FUNCTION VAN_GENUCHTEN
    LIQUID_RESIDUAL_SATURATION 0.d0
    ALPHA 1.d-4
    M 0.5d0
    MAX_CAPILLARY_PRESSURE 1.d6
  /
  PERMEABILITY_FUNCTION MUALEM
    PHASE LIQUID
    LIQUID_RESIDUAL_SATURATION 0.d0
    M 0.5d0
  /
  PERMEABILITY_FUNCTION MUALEM_VG_GAS
    PHASE GAS
    LIQUID_RESIDUAL_SATURATION 0.d0
    GAS_RESIDUAL_SATURATION 1.d-40
    M 0.5d0
  /
END



#=========================== output options ===================================
OUTPUT
  SCREEN PERIODIC 100
  PERIODIC TIME 24 hour          #the frequency of generating output
  FORMAT HDF5                #hdf5 file can be read by VISITS
  FORMAT TECPLOT POINT       #text file, can be read in python and plot data


  OBSERVATION_FILE      #generate results only for the observation points
    PERIODIC TIME  12 hour

  END


  VARIABLES
    LIQUID_SATURATION    
  END
  
 MASS_BALANCE_FILE
    PERIODIC TIME 1 day
  /

END

#=========================== times ============================================
TIME
  FINAL_TIME 30 day

  INITIAL_TIMESTEP_SIZE 0.5d0 h
  MAXIMUM_TIMESTEP_SIZE 12.d0 h
END

#=========================== regions ==========================================
REGION obs_pt
  COORDINATE  0.05   0.05  0.25d0
  FACE TOP
/


REGION top
  COORDINATES
    0.d0  0.d0 0.7d0
    0.1d0 0.1d0 0.7d0
  /
  FACE TOP
END

skip
REGION west
    COORDINATES
    0.d0   0.d0 0.d0
    0.49d0 1.d0 0.7d0
  /
  FACE TOP
END


REGION east
    COORDINATES
    0.49d0   0.d0   0.d0
    0.98d0   1.d0   0.7d0
  /
  FACE TOP
END
noskip


REGION top_layer
  COORDINATES
    0.d0 0.d0 0.626d0
    0.1d0 0.1d0 0.7d0
  /
  FACE TOP
END


REGION roots_layer
  COORDINATES
    0.d0 0.d0 0.6d0
    0.1d0 0.1d0 0.6d0
  /
  FACE TOP
END

REGION bottom
  COORDINATES
    0.d0 0.d0 0.0d0
    0.1d0 0.1d0 0.0d0
  /
  FACE BOTTOM
END


REGION all
  COORDINATES
    0.d0 0.d0 0.d0
    0.1d0 0.1d0 0.7d0
  /
  FACE TOP
END



REGION root1
	COORDINATES
		0.025  0.045  0.6
		0.025  0.045  0.6
	/
	FACE TOP
END

REGION root2
	COORDINATES
		0.055  0.065  0.6
		0.055  0.065  0.6
	/
	FACE TOP
END

REGION root3
	COORDINATES
		0.045  0.095  0.6
		0.045  0.095  0.6
	/
	FACE TOP
END

REGION root4
	COORDINATES
		0.095  0.095  0.6
		0.095  0.095  0.6
	/
	FACE TOP
END

REGION root5
	COORDINATES
		0.065  0.055  0.6
		0.065  0.055  0.6
	/
	FACE TOP
END

REGION root6
	COORDINATES
		0.065  0.015  0.6
		0.065  0.015  0.6
	/
	FACE TOP
END

REGION root7
	COORDINATES
		0.075  0.015  0.6
		0.075  0.015  0.6
	/
	FACE TOP
END

REGION root8
	COORDINATES
		0.095  0.035  0.6
		0.095  0.035  0.6
	/
	FACE TOP
END

REGION root9
	COORDINATES
		0.075  0.065  0.6
		0.075  0.065  0.6
	/
	FACE TOP
END

REGION root10
	COORDINATES
		0.045  0.025  0.6
		0.045  0.025  0.6
	/
	FACE TOP
END

REGION root11
	COORDINATES
		0.015  0.045  0.6
		0.015  0.045  0.6
	/
	FACE TOP
END

REGION root12
	COORDINATES
		0.035  0.035  0.6
		0.035  0.035  0.6
	/
	FACE TOP
END

REGION root13
	COORDINATES
		0.075  0.035  0.6
		0.075  0.035  0.6
	/
	FACE TOP
END

REGION root14
	COORDINATES
		0.055  0.055  0.6
		0.055  0.055  0.6
	/
	FACE TOP
END

REGION root15
	COORDINATES
		0.045  0.055  0.6
		0.045  0.055  0.6
	/
	FACE TOP
END

REGION root16
	COORDINATES
		0.035  0.085  0.6
		0.035  0.085  0.6
	/
	FACE TOP
END

REGION root17
	COORDINATES
		0.005  0.095  0.6
		0.005  0.095  0.6
	/
	FACE TOP
END

REGION root18
	COORDINATES
		0.085  0.045  0.6
		0.085  0.045  0.6
	/
	FACE TOP
END

REGION root19
	COORDINATES
		0.035  0.025  0.6
		0.035  0.025  0.6
	/
	FACE TOP
END

REGION root20
	COORDINATES
		0.075  0.095  0.6
		0.075  0.095  0.6
	/
	FACE TOP
END

REGION root21
	COORDINATES
		0.025  0.005  0.6
		0.025  0.005  0.6
	/
	FACE TOP
END

REGION root22
	COORDINATES
		0.025  0.035  0.6
		0.025  0.035  0.6
	/
	FACE TOP
END

REGION root23
	COORDINATES
		0.085  0.035  0.6
		0.085  0.035  0.6
	/
	FACE TOP
END

REGION root24
	COORDINATES
		0.055  0.015  0.6
		0.055  0.015  0.6
	/
	FACE TOP
END

REGION root25
	COORDINATES
		0.035  0.055  0.6
		0.035  0.055  0.6
	/
	FACE TOP
END

REGION root26
	COORDINATES
		0.055  0.005  0.6
		0.055  0.005  0.6
	/
	FACE TOP
END

REGION root27
	COORDINATES
		0.065  0.045  0.6
		0.065  0.045  0.6
	/
	FACE TOP
END

REGION root28
	COORDINATES
		0.035  0.045  0.6
		0.035  0.045  0.6
	/
	FACE TOP
END

REGION root29
	COORDINATES
		0.095  0.025  0.6
		0.095  0.025  0.6
	/
	FACE TOP
END

REGION root30
	COORDINATES
		0.045  0.005  0.6
		0.045  0.005  0.6
	/
	FACE TOP
END

REGION root31
	COORDINATES
		0.005  0.065  0.6
		0.005  0.065  0.6
	/
	FACE TOP
END

REGION root32
	COORDINATES
		0.065  0.095  0.6
		0.065  0.095  0.6
	/
	FACE TOP
END

REGION root33
	COORDINATES
		0.065  0.065  0.6
		0.065  0.065  0.6
	/
	FACE TOP
END

REGION root34
	COORDINATES
		0.025  0.015  0.6
		0.025  0.015  0.6
	/
	FACE TOP
END

REGION root35
	COORDINATES
		0.095  0.045  0.6
		0.095  0.045  0.6
	/
	FACE TOP
END

REGION root36
	COORDINATES
		0.025  0.065  0.6
		0.025  0.065  0.6
	/
	FACE TOP
END

REGION root37
	COORDINATES
		0.055  0.085  0.6
		0.055  0.085  0.6
	/
	FACE TOP
END

REGION root38
	COORDINATES
		0.045  0.085  0.6
		0.045  0.085  0.6
	/
	FACE TOP
END

REGION root39
	COORDINATES
		0.085  0.055  0.6
		0.085  0.055  0.6
	/
	FACE TOP
END

REGION root40
	COORDINATES
		0.055  0.075  0.6
		0.055  0.075  0.6
	/
	FACE TOP
END

REGION root41
	COORDINATES
		0.055  0.095  0.6
		0.055  0.095  0.6
	/
	FACE TOP
END

REGION root42
	COORDINATES
		0.025  0.055  0.6
		0.025  0.055  0.6
	/
	FACE TOP
END

REGION root43
	COORDINATES
		0.085  0.005  0.6
		0.085  0.005  0.6
	/
	FACE TOP
END

REGION root44
	COORDINATES
		0.085  0.065  0.6
		0.085  0.065  0.6
	/
	FACE TOP
END

REGION root45
	COORDINATES
		0.025  0.095  0.6
		0.025  0.095  0.6
	/
	FACE TOP
END

REGION root46
	COORDINATES
		0.095  0.015  0.6
		0.095  0.015  0.6
	/
	FACE TOP
END

REGION root47
	COORDINATES
		0.015  0.065  0.6
		0.015  0.065  0.6
	/
	FACE TOP
END

REGION root48
	COORDINATES
		0.065  0.085  0.6
		0.065  0.085  0.6
	/
	FACE TOP
END

REGION root49
	COORDINATES
		0.065  0.075  0.6
		0.065  0.075  0.6
	/
	FACE TOP
END

REGION root50
	COORDINATES
		0.015  0.025  0.6
		0.015  0.025  0.6
	/
	FACE TOP
END

REGION root51
	COORDINATES
		0.005  0.055  0.6
		0.005  0.055  0.6
	/
	FACE TOP
END

REGION root52
	COORDINATES
		0.085  0.085  0.6
		0.085  0.085  0.6
	/
	FACE TOP
END

REGION root53
	COORDINATES
		0.015  0.085  0.6
		0.015  0.085  0.6
	/
	FACE TOP
END

REGION root54
	COORDINATES
		0.005  0.045  0.6
		0.005  0.045  0.6
	/
	FACE TOP
END

REGION root55
	COORDINATES
		0.015  0.015  0.6
		0.015  0.015  0.6
	/
	FACE TOP
END

REGION root56
	COORDINATES
		0.015  0.075  0.6
		0.015  0.075  0.6
	/
	FACE TOP
END

REGION root57
	COORDINATES
		0.075  0.045  0.6
		0.075  0.045  0.6
	/
	FACE TOP
END

REGION root58
	COORDINATES
		0.055  0.045  0.6
		0.055  0.045  0.6
	/
	FACE TOP
END

REGION root59
	COORDINATES
		0.095  0.055  0.6
		0.095  0.055  0.6
	/
	FACE TOP
END

REGION root60
	COORDINATES
		0.085  0.075  0.6
		0.085  0.075  0.6
	/
	FACE TOP
END

REGION root61
	COORDINATES
		0.085  0.025  0.6
		0.085  0.025  0.6
	/
	FACE TOP
END

REGION root62
	COORDINATES
		0.095  0.005  0.6
		0.095  0.005  0.6
	/
	FACE TOP
END

REGION root63
	COORDINATES
		0.055  0.025  0.6
		0.055  0.025  0.6
	/
	FACE TOP
END

REGION root64
	COORDINATES
		0.015  0.055  0.6
		0.015  0.055  0.6
	/
	FACE TOP
END

REGION root65
	COORDINATES
		0.095  0.085  0.6
		0.095  0.085  0.6
	/
	FACE TOP
END

REGION root66
	COORDINATES
		0.045  0.045  0.6
		0.045  0.045  0.6
	/
	FACE TOP
END

REGION root67
	COORDINATES
		0.065  0.025  0.6
		0.065  0.025  0.6
	/
	FACE TOP
END

REGION root68
	COORDINATES
		0.035  0.015  0.6
		0.035  0.015  0.6
	/
	FACE TOP
END

REGION root69
	COORDINATES
		0.015  0.035  0.6
		0.015  0.035  0.6
	/
	FACE TOP
END

REGION root70
	COORDINATES
		0.075  0.075  0.6
		0.075  0.075  0.6
	/
	FACE TOP
END

REGION root71
	COORDINATES
		0.025  0.085  0.6
		0.025  0.085  0.6
	/
	FACE TOP
END

REGION root72
	COORDINATES
		0.075  0.055  0.6
		0.075  0.055  0.6
	/
	FACE TOP
END

REGION root73
	COORDINATES
		0.065  0.035  0.6
		0.065  0.035  0.6
	/
	FACE TOP
END

REGION root74
	COORDINATES
		0.065  0.005  0.6
		0.065  0.005  0.6
	/
	FACE TOP
END

REGION root75
	COORDINATES
		0.035  0.075  0.6
		0.035  0.075  0.6
	/
	FACE TOP
END

REGION root76
	COORDINATES
		0.045  0.015  0.6
		0.045  0.015  0.6
	/
	FACE TOP
END

REGION root77
	COORDINATES
		0.045  0.075  0.6
		0.045  0.075  0.6
	/
	FACE TOP
END

REGION root78
	COORDINATES
		0.085  0.095  0.6
		0.085  0.095  0.6
	/
	FACE TOP
END

REGION root79
	COORDINATES
		0.025  0.025  0.6
		0.025  0.025  0.6
	/
	FACE TOP
END

REGION root80
	COORDINATES
		0.035  0.005  0.6
		0.035  0.005  0.6
	/
	FACE TOP
END

REGION root81
	COORDINATES
		0.095  0.065  0.6
		0.095  0.065  0.6
	/
	FACE TOP
END

REGION root82
	COORDINATES
		0.035  0.065  0.6
		0.035  0.065  0.6
	/
	FACE TOP
END

REGION root83
	COORDINATES
		0.035  0.095  0.6
		0.035  0.095  0.6
	/
	FACE TOP
END

REGION root84
	COORDINATES
		0.025  0.075  0.6
		0.025  0.075  0.6
	/
	FACE TOP
END

REGION root85
	COORDINATES
		0.045  0.035  0.6
		0.045  0.035  0.6
	/
	FACE TOP
END

REGION root86
	COORDINATES
		0.005  0.035  0.6
		0.005  0.035  0.6
	/
	FACE TOP
END

REGION root87
	COORDINATES
		0.055  0.035  0.6
		0.055  0.035  0.6
	/
	FACE TOP
END

REGION root88
	COORDINATES
		0.015  0.095  0.6
		0.015  0.095  0.6
	/
	FACE TOP
END

REGION root89
	COORDINATES
		0.075  0.025  0.6
		0.075  0.025  0.6
	/
	FACE TOP
END

REGION root90
	COORDINATES
		0.075  0.005  0.6
		0.075  0.005  0.6
	/
	FACE TOP
END



#=========================== observation points ===============================
OBSERVATION
  REGION obs_pt
  AT_COORDINATE    # if not "AT_COORDINATE", then observation data sampled from the center of the cell (by default)
END


#=========================== transport conditions =============================
TRANSPORT_CONDITION initial
  TYPE dirichlet
  TIME_UNITS hr
  CONSTRAINT_LIST
    0.d0 initial 
  /
END


TRANSPORT_CONDITION sed_air_interface
  TYPE dirichlet
  TIME_UNITS hr
  CONSTRAINT_LIST
   0.d0 sed_air_interface
   
  /
END

TRANSPORT_CONDITION bottom_boundary
  TYPE dirichlet
  TIME_UNITS hr
  CONSTRAINT_LIST
   0.d0 bottom_boundary
   
  /
END



TRANSPORT_CONDITION root
  TYPE dirichlet
  TIME_UNITS hr
  CONSTRAINT_LIST
    0.d0 root
  /
END



TRANSPORT_CONDITION tide
  TYPE dirichlet
  TIME_UNITS hr
  CONSTRAINT_LIST
   0.d0 tide
  /
END



TRANSPORT_CONDITION O2_diffusion
  TYPE dirichlet
  TIME_UNITS hr
  CONSTRAINT_LIST
   0.d0 O2_diffusion
  /
END


#=========================== flow conditions =============================

FLOW_CONDITION initial
  TYPE
    GAS_PRESSURE dirichlet
    GAS_SATURATION dirichlet
    TEMPERATURE dirichlet
  /
  GAS_PRESSURE 1.d5
  GAS_SATURATION 0.d0   
  TEMPERATURE 25.d0
/


FLOW_CONDITION sed_air_interface       #flow condition for the boundary
  TYPE
    GAS_PRESSURE dirichlet
    GAS_SATURATION dirichlet
    TEMPERATURE dirichlet
  /
  GAS_PRESSURE 1.d5
  GAS_SATURATION 0.d0   
  TEMPERATURE 25.d0
/


FLOW_CONDITION bottom_boundary
  TYPE
    GAS_PRESSURE dirichlet
    GAS_SATURATION dirichlet
    TEMPERATURE dirichlet
  /
  GAS_PRESSURE 1.d5
  GAS_SATURATION 0.d0   
  TEMPERATURE 25.d0
/



FLOW_CONDITION tide
  TYPE
    RATE volumetric_rate
  /
  RATE -0.0204d-4  0  0 m^3/hr m^3/hr MW

skip
  RATE LIST
  #  EXTERNAL_FILE RateListTide_MI.txt


 
  TIME_UNITS hr
  DATA_UNITS m^3/hr   m^3/hr   MW
   0.d0   -0.0001   0.d0    0.d0
   2.d0    0.0001    0.d0   0.d0
  10.d0   -0.0001        0      0
 

 /
noskip 
/


# inject oxygen evenly, not creating heterogeneity

FLOW_CONDITION ROL_homo    #inject Oxygen via several hotspots, to create spatial heterogeneity
  TYPE
    RATE volumetric_rate
   /
  
  RATE LIST
    TIME_UNITS hr
    DATA_UNITS m^3/hr   m^3/hr   MW       #liquid gas energy
      
      0.d0   0.01d-8   0.d0    0.d0   
      # 1.d-8 divided by number of columns; 
      
  /
/

FLOW_CONDITION ROL_het    #inject Oxygen via several hotspots, to create spatial heterogeneity
  TYPE
    RATE volumetric_rate
   /
  
  RATE LIST
    TIME_UNITS hr
    DATA_UNITS m^3/hr   m^3/hr   MW
      
      0.d0   0.01111d-8   0.d0    0.d0   
      # 1.d-8 divided by number of roots; 
      
  /
/


#=========================== condition couplers ===============================
skip
# Tides
# Add or remove  water mass from the sediment column
# This process does not work if I have set up a boundary condition, as the boundary condition would force the water content
# to stay constant, to match the boundary condition

SOURCE_SINK tide
  FLOW_CONDITION tide
  TRANSPORT_CONDITION tide
  REGION top
END
noskip


# Initial condition

INITIAL_CONDITION     # initial condition
  TRANSPORT_CONDITION initial
  FLOW_CONDITION initial
  REGION all
END




# Boundary condition at the sediment-air-interface

BOUNDARY_CONDITION sed_air_interface
  TRANSPORT_CONDITION sed_air_interface
  FLOW_CONDITION sed_air_interface
  REGION top
END




skip
#O2 diffusion from top 
#This is to simulate the oxygen fluctuation due to water table change,
# when water table is below sediment surface, increase the O2 diffusion rate as water table draws down
#I have a list of O2 input rate wich varies with the water table over time in the FLOW CONDITION

SOURCE_SINK O2_diffusion            
  FLOW_CONDITION O2_diffusion
  TRANSPORT_CONDITION O2_diffusion
  REGION top_layer
END
noskip


skip
# Homogeneous Root Oxygen Release: Inject Oxygen evenly, i.e. no heterogeneity

SOURCE_SINK ROL_homo    #Root Oxygen Release, homogeneous           
  FLOW_CONDITION ROL_homo
  TRANSPORT_CONDITION root
  REGION roots_layer
END
noskip




# Heterogeneous Root Oxygen Release, inject oxygen via certain hotspots to create heterogeneity
SOURCE_SINK ROL_het1
	FLOW_CONDITION ROL_het
	TRANSPORT_CONDITION root
	REGION root1
END

SOURCE_SINK ROL_het2
	FLOW_CONDITION ROL_het
	TRANSPORT_CONDITION root
	REGION root2
END

SOURCE_SINK ROL_het3
	FLOW_CONDITION ROL_het
	TRANSPORT_CONDITION root
	REGION root3
END

SOURCE_SINK ROL_het4