# Description: Simple microbial decomposition and dissolution to DOM network
# Rate constants estimated to show different processes

SIMULATION
  SIMULATION_TYPE SUBSURFACE
  PROCESS_MODELS
    SUBSURFACE_FLOW flow
      MODE GENERAL
      OPTIONS
        #ARITHMETIC_GAS_DIFFUSIVE_DENSITY
      /
    /
    SUBSURFACE_TRANSPORT transport
      MODE GIRT
      #NUMERICAL_JACOBIAN
    /
  /
END

SUBSURFACE

#=========================== useful transport parameters =======================

REFERENCE_LIQUID_DENSITY 1.d3


#=========================== chemistry ========================================
CHEMISTRY
PRIMARY_SPECIES
  #### NOTE: Beginning of auto-inserted primary species ####
  DOM1
  H+
  O2(aq)
  HCO3-
  NH4+
  Fe+++
  Fe++
  Tracer
  Tracer1
  Tracer2
  Tracer3
  CH4(aq)
  SO4--
  H2S(aq)
  #### NOTE: End of auto-inserted primary species ####
/
DECOUPLED_EQUILIBRIUM_REACTIONS
  #### NOTE: Beginning of auto-inserted primary species ####
  DOM1
  H+
  O2(aq)
  HCO3-
  Fe+++
  Fe++
  NH4+
  Tracer
  CH4(aq)
  H2S(aq)
  #### NOTE: End of auto-inserted primary species ####
/
SECONDARY_SPECIES
  #### NOTE: Beginning of auto-inserted secondary species ####
  CO2(aq)
  OH-
  FeCO3+
  #### NOTE: End of auto-inserted secondary species ####
/
MINERALS
  #### NOTE: Beginning of auto-inserted secondary species ####
  Fe(OH)3
  FeO
  #### NOTE: End of auto-inserted secondary species ####
/
MINERAL_KINETICS
  #### NOTE: Beginning of auto-inserted secondary species ####
  Fe(OH)3
    RATE_CONSTANT  1.d-7 mol/m^2-sec
  /
  FeO
    RATE_CONSTANT  1.d-7 mol/m^2-sec
  /
  #### NOTE: End of auto-inserted secondary species ####
/
IMMOBILE_SPECIES
  #### NOTE: Beginning of auto-inserted immobile species ####
  cellulose
  HRimm


  #### NOTE: End of auto-inserted immobile species ####
/
PASSIVE_GAS_SPECIES
  #### NOTE: Beginning of auto-inserted gas species ####
  CO2(g)
  O2(g)
  #### NOTE: End of auto-inserted gas species ####
/




 MICROBIAL_REACTION
    REACTION CH4(aq) + Tracer2 + Tracer3 -> Tracer1
    RATE_CONSTANT 6.d-2   #unit: mol L-1 s-1

    MONOD
      SPECIES_NAME CH4(aq)
      HALF_SATURATION_CONSTANT 1.d-2
     /

     MONOD
      SPECIES_NAME Tracer2
      HALF_SATURATION_CONSTANT 1.d-2
     /

     MONOD
      SPECIES_NAME Tracer3
      HALF_SATURATION_CONSTANT 1.d-2
     /
/



#### NOTE: End of auto-inserted reactions ####

TRUNCATE_CONCENTRATION 1.d-80


LOG_FORMULATION
DATABASE ./hanford.dat

OUTPUT
  !PH
    
  TOTAL
  CH4(aq)
 /
END  #end of the chemistry card

#=========================== transport constraints ============================
CONSTRAINT initial
  IMMOBILE
    #### NOTE: Beginning of auto-inserted immobile species ####
    cellulose            1.0e+03
    HRimm                1.0e-20

    #### NOTE: End of auto-inserted immobile species ####
  /
  CONCENTRATIONS
    #### NOTE: Beginning of auto-inserted concentration constraints ####
    DOM1                6.0e-3 T
    H+                  5.9 P 
    O2(aq)              2.d-6 T           
    #the initial concentration of O2 for the soil porewater; it should not be higher than 2e-4, otherwise it cause problems 
    HCO3-               400e-6 G CO2(g)
    Fe+++               0.37e-3 M Fe(OH)3
    Fe++                0.37e-10
    NH4+                1.0e-6
    Tracer              0.1
    Tracer1             0.1
    Tracer2             1.d-4
    Tracer3             1.d-4
    CH4(aq)             1.d-4          #from measured data at typha
    SO4--               5.d-3
    H2S(aq)             3.d-4
    #### NOTE: End of auto-inserted concentration constraints ####
  /
  MINERALS
    #### NOTE: Beginning of auto-inserted mineral constraints ####
    Fe(OH)3             1.d-5  1.e2 m^2/m^3
    FeO                 0.0  1. m^2/m^3
    #### NOTE: End of auto-inserted mineral constraints ####
  /  
END




#=========================== solver options ===================================
NUMERICAL_METHODS TRANSPORT
  LINEAR_SOLVER
    SOLVER DIRECT
    !SOLVER ITERATIVE     ! default: ITERATIVE or KRYLOV: KSP_TYPE of BCGS and PC_TYPE of BJACOBI, if not modified below
    PC_TYPE JACOBI       ! default (iterative): BJACOBI. 
    KSP_TYPE fgmres      ! default: BCGS. NOT much difference 
  /

  NEWTON_SOLVER TRANSPORT
    NUMERICAL_JACOBIAN
    ATOL 1.d-20
    RTOL 1.d-15
    STOL 1.d-10
    ITOL 1.d-10
  /
END

#=========================== discretization ===================================
GRID
  TYPE structured
  ORIGIN 0.d0 0.d0 0.d0
  NXYZ 1 1 1

  
  DXYZ
   1.0
   1.0
   1.0
  END


skip
  BOUNDS 
    0.d0 0.d0 0.d0
    1.d0 1.d0 1.d0   # 1m deep
  /
noskip
END


PROC 1 1 1

#=========================== fluid properties =================================
FLUID_PROPERTY
  PHASE LIQUID
  DIFFUSION_COEFFICIENT 2.d-8  #unit: m2/s   #Here I use oxygen diffusion coefficient in water (20C)

END

FLUID_PROPERTY
  PHASE GAS
  DIFFUSION_COEFFICIENT 2.d-5
END

#=========================== material properties ==============================
MATERIAL_PROPERTY soil1
  ID 1
  POROSITY 0.8d0
  SOIL_COMPRESSIBILITY_FUNCTION DEFAULT     ! BRAGFLO compressed porosity has mathematical issue at high pressure
  ! 1d-7~1d-8 equivalent to ice expansion of volume, upon 'default' or 'BRAGFLO'
  ! beyond this range may cause tiny-time stepping
  SOIL_COMPRESSIBILITY 1.d-07               ! 1d-7~1d-8 is a critical value for freezing expansion in soil;
  SOIL_REFERENCE_PRESSURE 201325.d0
  ROCK_DENSITY 2650.0d0
  SPECIFIC_HEAT 830.0d0
  THERMAL_CONDUCTIVITY_DRY 0.12037926674717922d0
  THERMAL_CONDUCTIVITY_WET 1.6082691464310437d0
  THERMAL_COND_EXPONENT 0.45d0
  THERMAL_CONDUCTIVITY_FROZEN 2.29d+00
  THERMAL_COND_EXPONENT_FROZEN 0.95d0
  CHARACTERISTIC_CURVES sf01
  PERMEABILITY
    PERM_X 1.d-11
    PERM_Y 1.d-11
    PERM_Z 1.d-11
  /
/



#=========================== characteristic curves ============================
CHARACTERISTIC_CURVES sf01
  SATURATION_FUNCTION VAN_GENUCHTEN
    LIQUID_RESIDUAL_SATURATION 0.d0
    ALPHA 1.d-4
    M 0.5d0
    MAX_CAPILLARY_PRESSURE 1.d6
  /
  PERMEABILITY_FUNCTION MUALEM
    PHASE LIQUID
    LIQUID_RESIDUAL_SATURATION 0.d0
    M 0.5d0
  /
  PERMEABILITY_FUNCTION MUALEM_VG_GAS
    PHASE GAS
    LIQUID_RESIDUAL_SATURATION 0.d0
    GAS_RESIDUAL_SATURATION 1.d-40
    M 0.5d0
  /
END


#=========================== output options ===================================
OUTPUT
  SCREEN PERIODIC 100
  PERIODIC TIME  1 s          #the frequency of generating output
  FORMAT HDF5                #hdf5 file can be read by VISITS
  FORMAT TECPLOT POINT       #text file, can be read in python and plot data


  OBSERVATION_FILE      #generate results only for the observation points
    PERIODIC TIME  12 hour

  END


  VARIABLES
    LIQUID_SATURATION    
  END
  
 MASS_BALANCE_FILE
    PERIODIC TIMESTEP 10
  /

END

#=========================== times ============================================
TIME
  FINAL_TIME 10 s

  INITIAL_TIMESTEP_SIZE 0.5d0 h
  MAXIMUM_TIMESTEP_SIZE 12.d0 h
END

#=========================== regions ==========================================
REGION top
  COORDINATES
    0.d0 0.d0 1.0d0
    1.d0 1.d0 1.0d0
  /
  FACE TOP
END

REGION all
  COORDINATES
    0.d0 0.d0 0.d0
    1.d0 1.d0 1.d0
  /
  FACE TOP
END

REGION obs_pt
  COORDINATE  0.5   0.5  1.d0
  FACE TOP
/


#=========================== observation points ===============================
OBSERVATION
  REGION obs_pt
  AT_COORDINATE    # if not "AT_COORDINATE", then observation data sampled from the center of the cell (by default)
END


#=========================== transport conditions =============================
TRANSPORT_CONDITION initial
  TYPE dirichlet
  TIME_UNITS hr
  CONSTRAINT_LIST
    0.d0 initial 
  /
END




#=========================== flow conditions =============================

FLOW_CONDITION initial
  TYPE
    GAS_PRESSURE dirichlet
    GAS_SATURATION dirichlet
    TEMPERATURE dirichlet
  /
  GAS_PRESSURE 1.d5
  GAS_SATURATION 0.d0   
  TEMPERATURE 25.d0
/

#=========================== condition couplers ===============================
INITIAL_CONDITION     # initial condition
  TRANSPORT_CONDITION initial
  FLOW_CONDITION initial
  REGION all
END

#=========================== stratigraphy couplers ============================



STRATA
  REGION all
  MATERIAL soil1
END




#=========================== regression =======================================
REGRESSION
  CELL_IDS
    1
  /
END

END_SUBSURFACE


